[TITLE]
;;Project Title/Notes

[OPTIONS]
;;Option             Value
FLOW_UNITS           LPS
INFILTRATION         CURVE_NUMBER
FLOW_ROUTING         DYNWAVE
LINK_OFFSETS         DEPTH
MIN_SLOPE            0
ALLOW_PONDING        NO
SKIP_STEADY_STATE    NO

START_DATE           10/13/2007
START_TIME           00:00:00
REPORT_START_DATE    10/13/2007
REPORT_START_TIME    00:00:00
END_DATE             10/14/2007
END_TIME             00:00:00
SWEEP_START          01/01
SWEEP_END            12/31
DRY_DAYS             0
REPORT_STEP          00:01:00
WET_STEP             00:01:00
DRY_STEP             00:01:00
ROUTING_STEP         0:00:10 
RULE_STEP            00:01:00

INERTIAL_DAMPING     PARTIAL
NORMAL_FLOW_LIMITED  BOTH
FORCE_MAIN_EQUATION  H-W
VARIABLE_STEP        0.75
LENGTHENING_STEP     0
MIN_SURFAREA         1.167
MAX_TRIALS           8
HEAD_TOLERANCE       0.0015
SYS_FLOW_TOL         5
LAT_FLOW_TOL         5
MINIMUM_STEP         0.5
THREADS              1

[FILES]
;;Interfacing Files
USE HOTSTART "G:\My Drive\Tesis\4_EjecutablesSWMMBase\Nivel_1\13Oct2007\Hotstart_13-10-2007.hsf"

[EVAPORATION]
;;Data Source    Parameters
;;-------------- ----------------
CONSTANT         0.0
DRY_ONLY         NO

[RAINGAGES]
;;Name           Format    Interval SCF      Source    
;;-------------- --------- ------ ------ ----------
Gauge            CUMULATIVE 00:01    1.0      TIMESERIES Rainfall        

[SUBCATCHMENTS]
;;Name           Rain Gage        Outlet           Area     %Imperv  Width    %Slope   CurbLen  SnowPack        
;;-------------- ---------------- ---------------- -------- -------- -------- -------- -------- ----------------
C1               Gauge            P8               23.6659  45.39    463.36   1.555    0                        
C2               Gauge            P8               7.3780   35.57    203.61   1.566    0                        
C3               Gauge            P8               15.8149  28.05    285.94   1.732    0                        

[SUBAREAS]
;;Subcatchment   N-Imperv   N-Perv     S-Imperv   S-Perv     PctZero    RouteTo    PctRouted 
;;-------------- ---------- ---------- ---------- ---------- ---------- ---------- ----------
C1               0.015      0.05       2.00       2.00       42.57      PERVIOUS   32.626    
C2               0.015      0.05       2.00       2.00       50.52      PERVIOUS   40.358    
C3               0.015      0.05       2.00       2.00       54.09      PERVIOUS   47.042    

[INFILTRATION]
;;Subcatchment   CurveNum              DryTime   
;;-------------- ---------- ---------- ----------
C1               74.952     0.5        7         
C2               76.269     0.5        7         
C3               75.218     0.5        7         

[JUNCTIONS]
;;Name           Elevation  MaxDepth   InitDepth  SurDepth   Aponded   
;;-------------- ---------- ---------- ---------- ---------- ----------
P1               2550.11    3.22       0          0          0         
P3               2550.66    2.49       0          0          0         
P5               2550.23    3.15       0          0          0         
P6               2550.12    2.69       0          0          0         
P7               2550.54    2.80       0          0          0         
P8               2548.76    2.99       0          0          0         
P9               2550.12    3.01       0          0          0         
P10              2550.06    3.50       0          0          0         
P11              2550.09    2.70       0          0          0         
P12              2549.41    2.40       0          0          0         
P14              2549.88    3.06       0          0          0         
P15              2549.50    2.77       0          0          0         
P16              2550.32    3.28       0          0          0         
P18              2550.09    2.70       0          0          0         
P19              2550.03    3.14       0          0          0         
P20              2550.49    2.96       0          0          0         
P21              2550.04    3.35       0          0          0         

[OUTFALLS]
;;Name           Elevation  Type       Stage Data       Gated    Route To        
;;-------------- ---------- ---------- ---------------- -------- ----------------
P83              2548.75    NORMAL                      NO                       

[CONDUITS]
;;Name           From Node        To Node          Length     Roughness  InOffset   OutOffset  InitFlow   MaxFlow   
;;-------------- ---------------- ---------------- ---------- ---------- ---------- ---------- ---------- ----------
L1               P1               P16              4.40       0.015      0.27       0.02       0          0         
L3               P3               P7               77.15      0.015      0          0.11       0          0         
L5               P5               P9               88.31      0.015      0          0          0          0         
L6               P6               P11              51.88      0.015      0.02       0          0          0         
L7               P7               P20              45.27      0.015      0          0.01       0          0         
L8               P8               P83              28.52      0.015      0          0          0          0         
L9               P9               P6               84.42      0.015      0          0          0          0         
L10              P10              P21              53.16      0.015      0          0          0          0         
L11              P11              P18              5.28       0.015      0          0          0          0         
L12              P12              P8               197.60     0.015      0.03       0.37       0          0         
L14              P14              P1               6.69       0.015      0.5        0          0          0         
L15              P15              P12              68.39      0.015      0.02       0          0          0         
L16              P16              P5               80.15      0.015      0          0          0          0         
L18              P18              P10              53.61      0.015      0.07       0.05       0          0         
L19              P19              P15              119.59     0.015      0          0          0          0         
L20              P20              P14              68.92      0.015      0          0          0          0         
L21              P21              P19              52.80      0.015      0.01       0.01       0          0         

[XSECTIONS]
;;Link           Shape        Geom1            Geom2      Geom3      Geom4      Barrels    Culvert   
;;-------------- ------------ ---------------- ---------- ---------- ---------- ---------- ----------
L1               RECT_CLOSED  1.2              1.18       0          0          1                    
L3               CIRCULAR     1                0          0          0          1                    
L5               CIRCULAR     1.2              0          0          0          1                    
L6               CIRCULAR     1.2              0          0          0          1                    
L7               CIRCULAR     1.2              0          0          0          1                    
L8               CIRCULAR     1.6              0          0          0          1                    
L9               CIRCULAR     1.2              0          0          0          1                    
L10              CIRCULAR     1.2              0          0          0          1                    
L11              CIRCULAR     1.2              0          0          0          1                    
L12              CIRCULAR     1.25             0          0          0          1                    
L14              RECT_CLOSED  1.2              1.18       0          0          1                    
L15              CIRCULAR     1.2              0          0          0          1                    
L16              CIRCULAR     1.2              0          0          0          1                    
L18              CIRCULAR     1.2              0          0          0          1                    
L19              CIRCULAR     1.25             0          0          0          1                    
L20              CIRCULAR     1.2              0          0          0          1                    
L21              CIRCULAR     1.2              0          0          0          1                    

[INFLOWS]
;;Node           Constituent      Time Series      Type     Mfactor  Sfactor  Baseline Pattern
;;-------------- ---------------- ---------------- -------- -------- -------- -------- --------
P3               FLOW             Discharge_In     FLOW     1.0      1.0              

[TIMESERIES]
;;Name           Date       Time       Value     
;;-------------- ---------- ---------- ----------
Rainfall         10/13/2007 00:00      0.00000   
Rainfall         10/13/2007 00:01      0.00000   
Rainfall         10/13/2007 00:02      0.00000   
Rainfall         10/13/2007 00:03      0.00000   
Rainfall         10/13/2007 00:04      0.00000   
Rainfall         10/13/2007 00:05      0.00000   
Rainfall         10/13/2007 00:06      0.00000   
Rainfall         10/13/2007 00:07      0.00000   
Rainfall         10/13/2007 00:08      0.00000   
Rainfall         10/13/2007 00:09      0.00000   
Rainfall         10/13/2007 00:10      0.00000   
Rainfall         10/13/2007 00:11      0.00000   
Rainfall         10/13/2007 00:12      0.00000   
Rainfall         10/13/2007 00:13      0.00000   
Rainfall         10/13/2007 00:14      0.00000   
Rainfall         10/13/2007 00:15      0.00000   
Rainfall         10/13/2007 00:16      0.00000   
Rainfall         10/13/2007 00:17      0.00000   
Rainfall         10/13/2007 00:18      0.00000   
Rainfall         10/13/2007 00:19      0.00000   
Rainfall         10/13/2007 00:20      0.00000   
Rainfall         10/13/2007 00:21      0.00000   
Rainfall         10/13/2007 00:22      0.00000   
Rainfall         10/13/2007 00:23      0.00000   
Rainfall         10/13/2007 00:24      0.00000   
Rainfall         10/13/2007 00:25      0.00000   
Rainfall         10/13/2007 00:26      0.00000   
Rainfall         10/13/2007 00:27      0.00000   
Rainfall         10/13/2007 00:28      0.00000   
Rainfall         10/13/2007 00:29      0.00000   
Rainfall         10/13/2007 00:30      0.00000   
Rainfall         10/13/2007 00:31      0.00000   
Rainfall         10/13/2007 00:32      0.00000   
Rainfall         10/13/2007 00:33      0.00000   
Rainfall         10/13/2007 00:34      0.00000   
Rainfall         10/13/2007 00:35      0.00000   
Rainfall         10/13/2007 00:36      0.00000   
Rainfall         10/13/2007 00:37      0.00000   
Rainfall         10/13/2007 00:38      0.00000   
Rainfall         10/13/2007 00:39      0.00000   
Rainfall         10/13/2007 00:40      0.00000   
Rainfall         10/13/2007 00:41      0.00000   
Rainfall         10/13/2007 00:42      0.00000   
Rainfall         10/13/2007 00:43      0.00000   
Rainfall         10/13/2007 00:44      0.00000   
Rainfall         10/13/2007 00:45      0.00000   
Rainfall         10/13/2007 00:46      0.00000   
Rainfall         10/13/2007 00:47      0.00000   
Rainfall         10/13/2007 00:48      0.00000   
Rainfall         10/13/2007 00:49      0.00000   
Rainfall         10/13/2007 00:50      0.00000   
Rainfall         10/13/2007 00:51      0.00000   
Rainfall         10/13/2007 00:52      0.00000   
Rainfall         10/13/2007 00:53      0.00000   
Rainfall         10/13/2007 00:54      0.00000   
Rainfall         10/13/2007 00:55      0.00000   
Rainfall         10/13/2007 00:56      0.00000   
Rainfall         10/13/2007 00:57      0.00000   
Rainfall         10/13/2007 00:58      0.00000   
Rainfall         10/13/2007 00:59      0.00000   
Rainfall         10/13/2007 01:00      0.00000   
Rainfall         10/13/2007 01:01      0.00000   
Rainfall         10/13/2007 01:02      0.00000   
Rainfall         10/13/2007 01:03      0.00000   
Rainfall         10/13/2007 01:04      0.00000   
Rainfall         10/13/2007 01:05      0.00000   
Rainfall         10/13/2007 01:06      0.00000   
Rainfall         10/13/2007 01:07      0.00000   
Rainfall         10/13/2007 01:08      0.00000   
Rainfall         10/13/2007 01:09      0.00000   
Rainfall         10/13/2007 01:10      0.00000   
Rainfall         10/13/2007 01:11      0.00000   
Rainfall         10/13/2007 01:12      0.00000   
Rainfall         10/13/2007 01:13      0.00000   
Rainfall         10/13/2007 01:14      0.00000   
Rainfall         10/13/2007 01:15      0.00000   
Rainfall         10/13/2007 01:16      0.00000   
Rainfall         10/13/2007 01:17      0.00000   
Rainfall         10/13/2007 01:18      0.00000   
Rainfall         10/13/2007 01:19      0.00000   
Rainfall         10/13/2007 01:20      0.00000   
Rainfall         10/13/2007 01:21      0.00000   
Rainfall         10/13/2007 01:22      0.00000   
Rainfall         10/13/2007 01:23      0.00000   
Rainfall         10/13/2007 01:24      0.00000   
Rainfall         10/13/2007 01:25      0.00000   
Rainfall         10/13/2007 01:26      0.00000   
Rainfall         10/13/2007 01:27      0.00000   
Rainfall         10/13/2007 01:28      0.00000   
Rainfall         10/13/2007 01:29      0.00000   
Rainfall         10/13/2007 01:30      0.00000   
Rainfall         10/13/2007 01:31      0.00000   
Rainfall         10/13/2007 01:32      0.00000   
Rainfall         10/13/2007 01:33      0.00000   
Rainfall         10/13/2007 01:34      0.00000   
Rainfall         10/13/2007 01:35      0.00000   
Rainfall         10/13/2007 01:36      0.00000   
Rainfall         10/13/2007 01:37      0.00000   
Rainfall         10/13/2007 01:38      0.00000   
Rainfall         10/13/2007 01:39      0.00000   
Rainfall         10/13/2007 01:40      0.00000   
Rainfall         10/13/2007 01:41      0.00000   
Rainfall         10/13/2007 01:42      0.00000   
Rainfall         10/13/2007 01:43      0.00000   
Rainfall         10/13/2007 01:44      0.19996   
Rainfall         10/13/2007 01:45      0.42999   
Rainfall         10/13/2007 01:46      1.31666   
Rainfall         10/13/2007 01:47      1.96551   
Rainfall         10/13/2007 01:48      2.51764   
Rainfall         10/13/2007 01:49      3.17646   
Rainfall         10/13/2007 01:50      4.13332   
Rainfall         10/13/2007 01:51      4.79999   
Rainfall         10/13/2007 01:52      5.65332   
Rainfall         10/13/2007 01:53      6.42104   
Rainfall         10/13/2007 01:54      6.99199   
Rainfall         10/13/2007 01:55      7.41175   
Rainfall         10/13/2007 01:56      8.07367   
Rainfall         10/13/2007 01:57      8.78570   
Rainfall         10/13/2007 01:58      9.69999   
Rainfall         10/13/2007 01:59      10.37999  
Rainfall         10/13/2007 02:00      10.93076  
Rainfall         10/13/2007 02:01      11.27666  
Rainfall         10/13/2007 02:02      11.45287  
Rainfall         10/13/2007 02:03      11.59080  
Rainfall         10/13/2007 02:04      11.72873  
Rainfall         10/13/2007 02:05      11.93181  
Rainfall         10/13/2007 02:06      12.43076  
Rainfall         10/13/2007 02:07      13.04666  
Rainfall         10/13/2007 02:08      13.38499  
Rainfall         10/13/2007 02:09      13.57014  
Rainfall         10/13/2007 02:10      13.75872  
Rainfall         10/13/2007 02:11      14.13635  
Rainfall         10/13/2007 02:12      14.75453  
Rainfall         10/13/2007 02:13      15.21598  
Rainfall         10/13/2007 02:14      15.63331  
Rainfall         10/13/2007 02:15      15.94812  
Rainfall         10/13/2007 02:16      16.17374  
Rainfall         10/13/2007 02:17      16.29120  
Rainfall         10/13/2007 02:18      16.39646  
Rainfall         10/13/2007 02:19      16.64471  
Rainfall         10/13/2007 02:20      16.80361  
Rainfall         10/13/2007 02:21      17.01151  
Rainfall         10/13/2007 02:22      17.12689  
Rainfall         10/13/2007 02:23      17.22350  
Rainfall         10/13/2007 02:24      17.28767  
Rainfall         10/13/2007 02:25      17.35184  
Rainfall         10/13/2007 02:26      17.46974  
Rainfall         10/13/2007 02:27      17.66462  
Rainfall         10/13/2007 02:28      17.78583  
Rainfall         10/13/2007 02:29      17.82681  
Rainfall         10/13/2007 02:30      17.85719  
Rainfall         10/13/2007 02:31      17.88757  
Rainfall         10/13/2007 02:32      17.91795  
Rainfall         10/13/2007 02:33      17.94833  
Rainfall         10/13/2007 02:34      17.97871  
Rainfall         10/13/2007 02:35      18.05998  
Rainfall         10/13/2007 02:36      18.27498  
Rainfall         10/13/2007 02:37      18.49998  
Rainfall         10/13/2007 02:38      18.71319  
Rainfall         10/13/2007 02:39      18.89865  
Rainfall         10/13/2007 02:40      19.04781  
Rainfall         10/13/2007 02:41      19.17824  
Rainfall         10/13/2007 02:42      19.50398  
Rainfall         10/13/2007 02:43      19.92193  
Rainfall         10/13/2007 02:44      20.15436  
Rainfall         10/13/2007 02:45      20.33053  
Rainfall         10/13/2007 02:46      20.46601  
Rainfall         10/13/2007 02:47      20.57922  
Rainfall         10/13/2007 02:48      20.61318  
Rainfall         10/13/2007 02:49      20.62935  
Rainfall         10/13/2007 02:50      20.64552  
Rainfall         10/13/2007 02:51      20.66169  
Rainfall         10/13/2007 02:52      20.67786  
Rainfall         10/13/2007 02:53      20.69403  
Rainfall         10/13/2007 02:54      20.71020  
Rainfall         10/13/2007 02:55      20.72637  
Rainfall         10/13/2007 02:56      20.74254  
Rainfall         10/13/2007 02:57      20.75871  
Rainfall         10/13/2007 02:58      20.77488  
Rainfall         10/13/2007 02:59      20.79105  
Rainfall         10/13/2007 03:00      20.80057  
Rainfall         10/13/2007 03:01      20.80057  
Rainfall         10/13/2007 03:02      20.80057  
Rainfall         10/13/2007 03:03      20.80057  
Rainfall         10/13/2007 03:04      20.80057  
Rainfall         10/13/2007 03:05      20.80057  
Rainfall         10/13/2007 03:06      20.80057  
Rainfall         10/13/2007 03:07      20.80057  
Rainfall         10/13/2007 03:08      20.80057  
Rainfall         10/13/2007 03:09      20.80057  
Rainfall         10/13/2007 03:10      20.80057  
Rainfall         10/13/2007 03:11      20.80057  
Rainfall         10/13/2007 03:12      20.80057  
Rainfall         10/13/2007 03:13      20.80057  
Rainfall         10/13/2007 03:14      20.80057  
Rainfall         10/13/2007 03:15      20.80057  
Rainfall         10/13/2007 03:16      20.80057  
Rainfall         10/13/2007 03:17      20.80057  
Rainfall         10/13/2007 03:18      20.80057  
Rainfall         10/13/2007 03:19      20.80057  
Rainfall         10/13/2007 03:20      20.80057  
Rainfall         10/13/2007 03:21      20.80057  
Rainfall         10/13/2007 03:22      20.80057  
Rainfall         10/13/2007 03:23      20.80057  
Rainfall         10/13/2007 03:24      20.80057  
Rainfall         10/13/2007 03:25      20.80057  
Rainfall         10/13/2007 03:26      20.80057  
Rainfall         10/13/2007 03:27      20.80057  
Rainfall         10/13/2007 03:28      20.80057  
Rainfall         10/13/2007 03:29      20.80057  
Rainfall         10/13/2007 03:30      20.80057  
Rainfall         10/13/2007 03:31      20.80057  
Rainfall         10/13/2007 03:32      20.80057  
Rainfall         10/13/2007 03:33      20.80057  
Rainfall         10/13/2007 03:34      20.80057  
Rainfall         10/13/2007 03:35      20.80057  
Rainfall         10/13/2007 03:36      20.80057  
Rainfall         10/13/2007 03:37      20.80057  
Rainfall         10/13/2007 03:38      20.80057  
Rainfall         10/13/2007 03:39      20.80057  
Rainfall         10/13/2007 03:40      20.80057  
Rainfall         10/13/2007 03:41      20.80057  
Rainfall         10/13/2007 03:42      20.80057  
Rainfall         10/13/2007 03:43      20.80057  
Rainfall         10/13/2007 03:44      20.80057  
Rainfall         10/13/2007 03:45      20.80057  
Rainfall         10/13/2007 03:46      20.80057  
Rainfall         10/13/2007 03:47      20.80057  
Rainfall         10/13/2007 03:48      20.80057  
Rainfall         10/13/2007 03:49      20.80057  
Rainfall         10/13/2007 03:50      20.80057  
Rainfall         10/13/2007 03:51      20.80057  
Rainfall         10/13/2007 03:52      20.80057  
Rainfall         10/13/2007 03:53      20.80057  
Rainfall         10/13/2007 03:54      20.80057  
Rainfall         10/13/2007 03:55      20.80057  
Rainfall         10/13/2007 03:56      20.80057  
Rainfall         10/13/2007 03:57      20.80057  
Rainfall         10/13/2007 03:58      20.80057  
Rainfall         10/13/2007 03:59      20.80057  
Rainfall         10/13/2007 04:00      20.80057  
Rainfall         10/13/2007 04:01      20.80057  
Rainfall         10/13/2007 04:02      20.80057  
Rainfall         10/13/2007 04:03      20.80057  
Rainfall         10/13/2007 04:04      20.80057  
Rainfall         10/13/2007 04:05      20.80057  
Rainfall         10/13/2007 04:06      20.80057  
Rainfall         10/13/2007 04:07      20.80057  
Rainfall         10/13/2007 04:08      20.80057  
Rainfall         10/13/2007 04:09      20.80057  
Rainfall         10/13/2007 04:10      20.80057  
Rainfall         10/13/2007 04:11      20.80057  
Rainfall         10/13/2007 04:12      20.80057  
Rainfall         10/13/2007 04:13      20.80057  
Rainfall         10/13/2007 04:14      20.80057  
Rainfall         10/13/2007 04:15      20.80057  
Rainfall         10/13/2007 04:16      20.80057  
Rainfall         10/13/2007 04:17      20.80057  
Rainfall         10/13/2007 04:18      20.80057  
Rainfall         10/13/2007 04:19      20.80057  
Rainfall         10/13/2007 04:20      20.80057  
Rainfall         10/13/2007 04:21      20.80057  
Rainfall         10/13/2007 04:22      20.80057  
Rainfall         10/13/2007 04:23      20.80057  
Rainfall         10/13/2007 04:24      20.80057  
Rainfall         10/13/2007 04:25      20.80057  
Rainfall         10/13/2007 04:26      20.80057  
Rainfall         10/13/2007 04:27      20.80057  
Rainfall         10/13/2007 04:28      20.80057  
Rainfall         10/13/2007 04:29      20.80057  
Rainfall         10/13/2007 04:30      20.80057  
Rainfall         10/13/2007 04:31      20.80057  
Rainfall         10/13/2007 04:32      20.80057  
Rainfall         10/13/2007 04:33      20.80057  
Rainfall         10/13/2007 04:34      20.80057  
Rainfall         10/13/2007 04:35      20.80057  
Rainfall         10/13/2007 04:36      20.80057  
Rainfall         10/13/2007 04:37      20.80057  
Rainfall         10/13/2007 04:38      20.80057  
Rainfall         10/13/2007 04:39      20.80057  
Rainfall         10/13/2007 04:40      20.80057  
Rainfall         10/13/2007 04:41      20.80057  
Rainfall         10/13/2007 04:42      20.80057  
Rainfall         10/13/2007 04:43      20.80057  
Rainfall         10/13/2007 04:44      20.80057  
Rainfall         10/13/2007 04:45      20.80057  
Rainfall         10/13/2007 04:46      20.80057  
Rainfall         10/13/2007 04:47      20.80057  
Rainfall         10/13/2007 04:48      20.80057  
Rainfall         10/13/2007 04:49      20.80057  
Rainfall         10/13/2007 04:50      20.80057  
Rainfall         10/13/2007 04:51      20.80057  
Rainfall         10/13/2007 04:52      20.80057  
Rainfall         10/13/2007 04:53      20.80057  
Rainfall         10/13/2007 04:54      20.80057  
Rainfall         10/13/2007 04:55      20.80057  
Rainfall         10/13/2007 04:56      20.80057  
Rainfall         10/13/2007 04:57      20.80057  
Rainfall         10/13/2007 04:58      20.80057  
Rainfall         10/13/2007 04:59      20.80057  
Rainfall         10/13/2007 05:00      20.80057  
Rainfall         10/13/2007 05:01      20.80057  
Rainfall         10/13/2007 05:02      20.80057  
Rainfall         10/13/2007 05:03      20.80057  
Rainfall         10/13/2007 05:04      20.80057  
Rainfall         10/13/2007 05:05      20.80057  
Rainfall         10/13/2007 05:06      20.80057  
Rainfall         10/13/2007 05:07      20.80057  
Rainfall         10/13/2007 05:08      20.80057  
Rainfall         10/13/2007 05:09      20.80057  
Rainfall         10/13/2007 05:10      20.80057  
Rainfall         10/13/2007 05:11      20.80057  
Rainfall         10/13/2007 05:12      20.80057  
Rainfall         10/13/2007 05:13      20.80057  
Rainfall         10/13/2007 05:14      20.80057  
Rainfall         10/13/2007 05:15      20.80057  
Rainfall         10/13/2007 05:16      20.80057  
Rainfall         10/13/2007 05:17      20.80057  
Rainfall         10/13/2007 05:18      20.80057  
Rainfall         10/13/2007 05:19      20.80057  
Rainfall         10/13/2007 05:20      20.80057  
Rainfall         10/13/2007 05:21      20.80057  
Rainfall         10/13/2007 05:22      20.80057  
Rainfall         10/13/2007 05:23      20.80057  
Rainfall         10/13/2007 05:24      20.99940  
Rainfall         10/13/2007 05:25      21.08670  
Rainfall         10/13/2007 05:26      21.25195  
Rainfall         10/13/2007 05:27      21.51215  
Rainfall         10/13/2007 05:28      21.80847  
Rainfall         10/13/2007 05:29      22.04541  
Rainfall         10/13/2007 05:30      22.22853  
Rainfall         10/13/2007 05:31      22.43154  
Rainfall         10/13/2007 05:32      22.72723  
Rainfall         10/13/2007 05:33      22.96600  
Rainfall         10/13/2007 05:34      23.10964  
Rainfall         10/13/2007 05:35      23.24087  
Rainfall         10/13/2007 05:36      23.37723  
Rainfall         10/13/2007 05:37      23.49897  
Rainfall         10/13/2007 05:38      23.63210  
Rainfall         10/13/2007 05:39      23.85094  
Rainfall         10/13/2007 05:40      24.11888  
Rainfall         10/13/2007 05:41      24.49996  
Rainfall         10/13/2007 05:42      24.82560  
Rainfall         10/13/2007 05:43      25.12996  
Rainfall         10/13/2007 05:44      25.42755  
Rainfall         10/13/2007 05:45      25.65402  
Rainfall         10/13/2007 05:46      26.02219  
Rainfall         10/13/2007 05:47      26.26219  
Rainfall         10/13/2007 05:48      26.39552  
Rainfall         10/13/2007 05:49      26.43644  
Rainfall         10/13/2007 05:50      26.47418  
Rainfall         10/13/2007 05:51      26.51192  
Rainfall         10/13/2007 05:52      26.54966  
Rainfall         10/13/2007 05:53      26.58740  
Rainfall         10/13/2007 05:54      26.61111  
Rainfall         10/13/2007 05:55      26.62780  
Rainfall         10/13/2007 05:56      26.64449  
Rainfall         10/13/2007 05:57      26.66118  
Rainfall         10/13/2007 05:58      26.67787  
Rainfall         10/13/2007 05:59      26.69456  
Rainfall         10/13/2007 06:00      26.71125  
Rainfall         10/13/2007 06:01      26.72794  
Rainfall         10/13/2007 06:02      26.74463  
Rainfall         10/13/2007 06:03      26.76132  
Rainfall         10/13/2007 06:04      26.77801  
Rainfall         10/13/2007 06:05      26.79470  
Rainfall         10/13/2007 06:06      26.80040  
Rainfall         10/13/2007 06:07      26.80040  
Rainfall         10/13/2007 06:08      26.80040  
Rainfall         10/13/2007 06:09      26.80040  
Rainfall         10/13/2007 06:10      26.80040  
Rainfall         10/13/2007 06:11      26.80040  
Rainfall         10/13/2007 06:12      26.80040  
Rainfall         10/13/2007 06:13      26.80040  
Rainfall         10/13/2007 06:14      26.80040  
Rainfall         10/13/2007 06:15      26.80040  
Rainfall         10/13/2007 06:16      26.80040  
Rainfall         10/13/2007 06:17      26.80040  
Rainfall         10/13/2007 06:18      26.80040  
Rainfall         10/13/2007 06:19      26.80040  
Rainfall         10/13/2007 06:20      26.80040  
Rainfall         10/13/2007 06:21      26.80040  
Rainfall         10/13/2007 06:22      26.80040  
Rainfall         10/13/2007 06:23      26.80040  
Rainfall         10/13/2007 06:24      26.80040  
Rainfall         10/13/2007 06:25      26.80040  
Rainfall         10/13/2007 06:26      26.80040  
Rainfall         10/13/2007 06:27      26.80040  
Rainfall         10/13/2007 06:28      26.80040  
Rainfall         10/13/2007 06:29      26.80040  
Rainfall         10/13/2007 06:30      26.80040  
Rainfall         10/13/2007 06:31      26.80040  
Rainfall         10/13/2007 06:32      26.80040  
Rainfall         10/13/2007 06:33      26.80040  
Rainfall         10/13/2007 06:34      26.80040  
Rainfall         10/13/2007 06:35      26.80040  
Rainfall         10/13/2007 06:36      26.80040  
Rainfall         10/13/2007 06:37      26.80040  
Rainfall         10/13/2007 06:38      26.80040  
Rainfall         10/13/2007 06:39      26.80040  
Rainfall         10/13/2007 06:40      26.80040  
Rainfall         10/13/2007 06:41      26.80040  
Rainfall         10/13/2007 06:42      26.80040  
Rainfall         10/13/2007 06:43      26.80040  
Rainfall         10/13/2007 06:44      26.80040  
Rainfall         10/13/2007 06:45      26.80040  
Rainfall         10/13/2007 06:46      26.80040  
Rainfall         10/13/2007 06:47      26.80040  
Rainfall         10/13/2007 06:48      26.80040  