[TITLE]
;;Project Title/Notes

[OPTIONS]
;;Option             Value
FLOW_UNITS           LPS
INFILTRATION         CURVE_NUMBER
FLOW_ROUTING         DYNWAVE
LINK_OFFSETS         DEPTH
MIN_SLOPE            0
ALLOW_PONDING        NO
SKIP_STEADY_STATE    NO

START_DATE           10/13/2007
START_TIME           00:00:00
REPORT_START_DATE    10/13/2007
REPORT_START_TIME    00:00:00
END_DATE             10/13/2007
END_TIME             13:00:00
SWEEP_START          01/01
SWEEP_END            12/31
DRY_DAYS             0
REPORT_STEP          00:01:00
WET_STEP             00:01:00
DRY_STEP             00:01:00
ROUTING_STEP         0:00:10 
RULE_STEP            00:01:00

INERTIAL_DAMPING     PARTIAL
NORMAL_FLOW_LIMITED  BOTH
FORCE_MAIN_EQUATION  H-W
VARIABLE_STEP        0.75
LENGTHENING_STEP     0
MIN_SURFAREA         1.167
MAX_TRIALS           8
HEAD_TOLERANCE       0.0015
SYS_FLOW_TOL         5
LAT_FLOW_TOL         5
MINIMUM_STEP         0.5
THREADS              1

[FILES]
;;Interfacing Files
SAVE HOTSTART "G:\My Drive\Tesis\4_EjecutablesSWMMBase\Nivel_1\13Oct2007\Hotstart_13-10-2007_TMP.hsf"

[EVAPORATION]
;;Data Source    Parameters
;;-------------- ----------------
CONSTANT         0.0
DRY_ONLY         NO

[RAINGAGES]
;;Name           Format    Interval SCF      Source    
;;-------------- --------- ------ ------ ----------
Gauge            CUMULATIVE 00:01    1.0      TIMESERIES Rainfall        

[SUBCATCHMENTS]
;;Name           Rain Gage        Outlet           Area     %Imperv  Width    %Slope   CurbLen  SnowPack        
;;-------------- ---------------- ---------------- -------- -------- -------- -------- -------- ----------------
C1               Gauge            P8               23.6659  45.39    463.36   1.555    0                        
C2               Gauge            P8               7.3780   35.57    203.61   1.566    0                        
C3               Gauge            P8               15.8149  28.05    285.94   1.732    0                        

[SUBAREAS]
;;Subcatchment   N-Imperv   N-Perv     S-Imperv   S-Perv     PctZero    RouteTo    PctRouted 
;;-------------- ---------- ---------- ---------- ---------- ---------- ---------- ----------
C1               0.015      0.05       2.00       2.00       42.57      PERVIOUS   32.626    
C2               0.015      0.05       2.00       2.00       50.52      PERVIOUS   40.358    
C3               0.015      0.05       2.00       2.00       54.09      PERVIOUS   47.042    

[INFILTRATION]
;;Subcatchment   CurveNum              DryTime   
;;-------------- ---------- ---------- ----------
C1               74.952     0.5        7         
C2               76.269     0.5        7         
C3               75.218     0.5        7         

[JUNCTIONS]
;;Name           Elevation  MaxDepth   InitDepth  SurDepth   Aponded   
;;-------------- ---------- ---------- ---------- ---------- ----------
P1               2550.11    3.22       0          0          0         
P3               2550.66    2.49       0          0          0         
P5               2550.23    3.15       0          0          0         
P6               2550.12    2.69       0          0          0         
P7               2550.54    2.80       0          0          0         
P8               2548.76    2.99       0          0          0         
P9               2550.12    3.01       0          0          0         
P10              2550.06    3.50       0          0          0         
P11              2550.09    2.70       0          0          0         
P12              2549.41    2.40       0          0          0         
P14              2549.88    3.06       0          0          0         
P15              2549.50    2.77       0          0          0         
P16              2550.32    3.28       0          0          0         
P18              2550.09    2.70       0          0          0         
P19              2550.03    3.14       0          0          0         
P20              2550.49    2.96       0          0          0         
P21              2550.04    3.35       0          0          0         

[OUTFALLS]
;;Name           Elevation  Type       Stage Data       Gated    Route To        
;;-------------- ---------- ---------- ---------------- -------- ----------------
P83              2548.75    NORMAL                      NO                       

[CONDUITS]
;;Name           From Node        To Node          Length     Roughness  InOffset   OutOffset  InitFlow   MaxFlow   
;;-------------- ---------------- ---------------- ---------- ---------- ---------- ---------- ---------- ----------
L1               P1               P16              4.40       0.015      0.27       0.02       0          0         
L3               P3               P7               77.15      0.015      0          0.11       0          0         
L5               P5               P9               88.31      0.015      0          0          0          0         
L6               P6               P11              51.88      0.015      0.02       0          0          0         
L7               P7               P20              45.27      0.015      0          0.01       0          0         
L8               P8               P83              28.52      0.015      0          0          0          0         
L9               P9               P6               84.42      0.015      0          0          0          0         
L10              P10              P21              53.16      0.015      0          0          0          0         
L11              P11              P18              5.28       0.015      0          0          0          0         
L12              P12              P8               197.60     0.015      0.03       0.37       0          0         
L14              P14              P1               6.69       0.015      0.5        0          0          0         
L15              P15              P12              68.39      0.015      0.02       0          0          0         
L16              P16              P5               80.15      0.015      0          0          0          0         
L18              P18              P10              53.61      0.015      0.07       0.05       0          0         
L19              P19              P15              119.59     0.015      0          0          0          0         
L20              P20              P14              68.92      0.015      0          0          0          0         
L21              P21              P19              52.80      0.015      0.01       0.01       0          0         

[XSECTIONS]
;;Link           Shape        Geom1            Geom2      Geom3      Geom4      Barrels    Culvert   
;;-------------- ------------ ---------------- ---------- ---------- ---------- ---------- ----------
L1               RECT_CLOSED  1.2              1.18       0          0          1                    
L3               CIRCULAR     1                0          0          0          1                    
L5               CIRCULAR     1.2              0          0          0          1                    
L6               CIRCULAR     1.2              0          0          0          1                    
L7               CIRCULAR     1.2              0          0          0          1                    
L8               CIRCULAR     1.6              0          0          0          1                    
L9               CIRCULAR     1.2              0          0          0          1                    
L10              CIRCULAR     1.2              0          0          0          1                    
L11              CIRCULAR     1.2              0          0          0          1                    
L12              CIRCULAR     1.25             0          0          0          1                    
L14              RECT_CLOSED  1.2              1.18       0          0          1                    
L15              CIRCULAR     1.2              0          0          0          1                    
L16              CIRCULAR     1.2              0          0          0          1                    
L18              CIRCULAR     1.2              0          0          0          1                    
L19              CIRCULAR     1.25             0          0          0          1                    
L20              CIRCULAR     1.2              0          0          0          1                    
L21              CIRCULAR     1.2              0          0          0          1                    

[INFLOWS]
;;Node           Constituent      Time Series      Type     Mfactor  Sfactor  Baseline Pattern
;;-------------- ---------------- ---------------- -------- -------- -------- -------- --------
P3               FLOW             Discharge_In     FLOW     1.0      1.0              

[TIMESERIES]
;;Name           Date       Time       Value     
;;-------------- ---------- ---------- ----------
Rainfall         10/13/2007 00:00      0.00000    
Rainfall         10/13/2007 00:01      0.00000    
Rainfall         10/13/2007 00:02      0.00000    
Rainfall         10/13/2007 00:03      0.00000    
Rainfall         10/13/2007 00:04      0.00000    
Rainfall         10/13/2007 00:05      0.00000    
Rainfall         10/13/2007 00:06      0.00000    
Rainfall         10/13/2007 00:07      0.00000    
Rainfall         10/13/2007 00:08      0.00000    
Rainfall         10/13/2007 00:09      0.00000    
Rainfall         10/13/2007 00:10      0.00000    
Rainfall         10/13/2007 00:11      0.00000    
Rainfall         10/13/2007 00:12      0.00000    
Rainfall         10/13/2007 00:13      0.00000    
Rainfall         10/13/2007 00:14      0.00000    
Rainfall         10/13/2007 00:15      0.00000    
Rainfall         10/13/2007 00:16      0.00000    
Rainfall         10/13/2007 00:17      0.00000    
Rainfall         10/13/2007 00:18      0.00000    
Rainfall         10/13/2007 00:19      0.00000    
Rainfall         10/13/2007 00:20      0.00000    
Rainfall         10/13/2007 00:21      0.00000    
Rainfall         10/13/2007 00:22      0.00000    
Rainfall         10/13/2007 00:23      0.00000    
Rainfall         10/13/2007 00:24      0.00000    
Rainfall         10/13/2007 00:25      0.00000    
Rainfall         10/13/2007 00:26      0.00000    
Rainfall         10/13/2007 00:27      0.00000    
Rainfall         10/13/2007 00:28      0.00000    
Rainfall         10/13/2007 00:29      0.00000    
Rainfall         10/13/2007 00:30      0.00000    
Rainfall         10/13/2007 00:31      0.00000    
Rainfall         10/13/2007 00:32      0.00000    
Rainfall         10/13/2007 00:33      0.00000    
Rainfall         10/13/2007 00:34      0.00000    
Rainfall         10/13/2007 00:35      0.00000    
Rainfall         10/13/2007 00:36      0.00000    
Rainfall         10/13/2007 00:37      0.00000    
Rainfall         10/13/2007 00:38      0.00000    
Rainfall         10/13/2007 00:39      0.00000    
Rainfall         10/13/2007 00:40      0.00000    
Rainfall         10/13/2007 00:41      0.00000    
Rainfall         10/13/2007 00:42      0.00000    
Rainfall         10/13/2007 00:43      0.00000    
Rainfall         10/13/2007 00:44      0.00000    
Rainfall         10/13/2007 00:45      0.00000    
Rainfall         10/13/2007 00:46      0.00000    
Rainfall         10/13/2007 00:47      0.00000    
Rainfall         10/13/2007 00:48      0.00000    
Rainfall         10/13/2007 00:49      0.00000    
Rainfall         10/13/2007 00:50      0.00000    
Rainfall         10/13/2007 00:51      0.00000    
Rainfall         10/13/2007 00:52      0.00000    
Rainfall         10/13/2007 00:53      0.00000    
Rainfall         10/13/2007 00:54      0.00000    
Rainfall         10/13/2007 00:55      0.00000    
Rainfall         10/13/2007 00:56      0.00000    
Rainfall         10/13/2007 00:57      0.00000    
Rainfall         10/13/2007 00:58      0.00000    
Rainfall         10/13/2007 00:59      0.00000    
Rainfall         10/13/2007 01:00      0.00000    
Rainfall         10/13/2007 01:01      0.00000    
Rainfall         10/13/2007 01:02      0.00000    
Rainfall         10/13/2007 01:03      0.00000    
Rainfall         10/13/2007 01:04      0.00000    
Rainfall         10/13/2007 01:05      0.00000    
Rainfall         10/13/2007 01:06      0.00000    
Rainfall         10/13/2007 01:07      0.00000    
Rainfall         10/13/2007 01:08      0.00000    
Rainfall         10/13/2007 01:09      0.00000    
Rainfall         10/13/2007 01:10      0.00000    
Rainfall         10/13/2007 01:11      0.00000    
Rainfall         10/13/2007 01:12      0.00000    
Rainfall         10/13/2007 01:13      0.00000    
Rainfall         10/13/2007 01:14      0.00000    
Rainfall         10/13/2007 01:15      0.00000    
Rainfall         10/13/2007 01:16      0.00000    
Rainfall         10/13/2007 01:17      0.00000    
Rainfall         10/13/2007 01:18      0.00000    
Rainfall         10/13/2007 01:19      0.00000    
Rainfall         10/13/2007 01:20      0.00000    
Rainfall         10/13/2007 01:21      0.00000    
Rainfall         10/13/2007 01:22      0.00000    
Rainfall         10/13/2007 01:23      0.00000    
Rainfall         10/13/2007 01:24      0.00000    
Rainfall         10/13/2007 01:25      0.00000    
Rainfall         10/13/2007 01:26      0.00000    
Rainfall         10/13/2007 01:27      0.00000    
Rainfall         10/13/2007 01:28      0.00000    
Rainfall         10/13/2007 01:29      0.00000    
Rainfall         10/13/2007 01:30      0.00000    
Rainfall         10/13/2007 01:31      0.00000    
Rainfall         10/13/2007 01:32      0.00000    
Rainfall         10/13/2007 01:33      0.00000    
Rainfall         10/13/2007 01:34      0.00000    
Rainfall         10/13/2007 01:35      0.00000    
Rainfall         10/13/2007 01:36      0.00000    
Rainfall         10/13/2007 01:37      0.00000    
Rainfall         10/13/2007 01:38      0.00000    
Rainfall         10/13/2007 01:39      0.00000    
Rainfall         10/13/2007 01:40      0.00000    
Rainfall         10/13/2007 01:41      0.00000    
Rainfall         10/13/2007 01:42      0.00000    
Rainfall         10/13/2007 01:43      0.00000    
Rainfall         10/13/2007 01:44      0.00000    
Rainfall         10/13/2007 01:45      0.00000    
Rainfall         10/13/2007 01:46      0.00000    
Rainfall         10/13/2007 01:47      0.00000    
Rainfall         10/13/2007 01:48      0.00000    
Rainfall         10/13/2007 01:49      0.00000    
Rainfall         10/13/2007 01:50      0.00000    
Rainfall         10/13/2007 01:51      0.00000    
Rainfall         10/13/2007 01:52      0.00000    
Rainfall         10/13/2007 01:53      0.00000    
Rainfall         10/13/2007 01:54      0.00000    
Rainfall         10/13/2007 01:55      0.00000    
Rainfall         10/13/2007 01:56      0.00000    
Rainfall         10/13/2007 01:57      0.00000    
Rainfall         10/13/2007 01:58      0.00000    
Rainfall         10/13/2007 01:59      0.00000    
Rainfall         10/13/2007 02:00      0.00000    
Rainfall         10/13/2007 02:01      0.00000    
Rainfall         10/13/2007 02:02      0.00000    
Rainfall         10/13/2007 02:03      0.00000    
Rainfall         10/13/2007 02:04      0.00000    
Rainfall         10/13/2007 02:05      0.00000    
Rainfall         10/13/2007 02:06      0.00000    
Rainfall         10/13/2007 02:07      0.00000    
Rainfall         10/13/2007 02:08      0.00000    
Rainfall         10/13/2007 02:09      0.00000    
Rainfall         10/13/2007 02:10      0.00000    
Rainfall         10/13/2007 02:11      0.00000    
Rainfall         10/13/2007 02:12      0.00000    
Rainfall         10/13/2007 02:13      0.00000    
Rainfall         10/13/2007 02:14      0.00000    
Rainfall         10/13/2007 02:15      0.00000    
Rainfall         10/13/2007 02:16      0.00000    
Rainfall         10/13/2007 02:17      0.00000    
Rainfall         10/13/2007 02:18      0.00000    
Rainfall         10/13/2007 02:19      0.00000    
Rainfall         10/13/2007 02:20      0.00000    
Rainfall         10/13/2007 02:21      0.00000    
Rainfall         10/13/2007 02:22      0.00000    
Rainfall         10/13/2007 02:23      0.00000    
Rainfall         10/13/2007 02:24      0.00000    
Rainfall         10/13/2007 02:25      0.00000    
Rainfall         10/13/2007 02:26      0.00000    
Rainfall         10/13/2007 02:27      0.00000    
Rainfall         10/13/2007 02:28      0.00000    
Rainfall         10/13/2007 02:29      0.00000    
Rainfall         10/13/2007 02:30      0.00000    
Rainfall         10/13/2007 02:31      0.00000    
Rainfall         10/13/2007 02:32      0.00000    
Rainfall         10/13/2007 02:33      0.00000    
Rainfall         10/13/2007 02:34      0.00000    
Rainfall         10/13/2007 02:35      0.00000    
Rainfall         10/13/2007 02:36      0.00000    
Rainfall         10/13/2007 02:37      0.00000    
Rainfall         10/13/2007 02:38      0.00000    
Rainfall         10/13/2007 02:39      0.00000    
Rainfall         10/13/2007 02:40      0.00000    
Rainfall         10/13/2007 02:41      0.00000    
Rainfall         10/13/2007 02:42      0.00000    
Rainfall         10/13/2007 02:43      0.00000    
Rainfall         10/13/2007 02:44      0.00000    
Rainfall         10/13/2007 02:45      0.00000    
Rainfall         10/13/2007 02:46      0.00000    
Rainfall         10/13/2007 02:47      0.00000    
Rainfall         10/13/2007 02:48      0.00000    
Rainfall         10/13/2007 02:49      0.00000    
Rainfall         10/13/2007 02:50      0.00000    
Rainfall         10/13/2007 02:51      0.00000    
Rainfall         10/13/2007 02:52      0.00000    
Rainfall         10/13/2007 02:53      0.00000    
Rainfall         10/13/2007 02:54      0.00000    
Rainfall         10/13/2007 02:55      0.00000    
Rainfall         10/13/2007 02:56      0.00000    
Rainfall         10/13/2007 02:57      0.00000    
Rainfall         10/13/2007 02:58      0.00000    
Rainfall         10/13/2007 02:59      0.00000    
Rainfall         10/13/2007 03:00      0.00000    
Rainfall         10/13/2007 03:01      0.00000    
Rainfall         10/13/2007 03:02      0.00000    
Rainfall         10/13/2007 03:03      0.00000    
Rainfall         10/13/2007 03:04      0.00000    
Rainfall         10/13/2007 03:05      0.00000    
Rainfall         10/13/2007 03:06      0.00000    
Rainfall         10/13/2007 03:07      0.00000    
Rainfall         10/13/2007 03:08      0.00000    
Rainfall         10/13/2007 03:09      0.00000    
Rainfall         10/13/2007 03:10      0.00000    
Rainfall         10/13/2007 03:11      0.00000    
Rainfall         10/13/2007 03:12      0.00000    
Rainfall         10/13/2007 03:13      0.00000    
Rainfall         10/13/2007 03:14      0.00000    
Rainfall         10/13/2007 03:15      0.00000    
Rainfall         10/13/2007 03:16      0.00000    
Rainfall         10/13/2007 03:17      0.00000    
Rainfall         10/13/2007 03:18      0.00000    
Rainfall         10/13/2007 03:19      0.00000    
Rainfall         10/13/2007 03:20      0.00000    
Rainfall         10/13/2007 03:21      0.00000    
Rainfall         10/13/2007 03:22      0.00000    
Rainfall         10/13/2007 03:23      0.00000    
Rainfall         10/13/2007 03:24      0.00000    
Rainfall         10/13/2007 03:25      0.00000    
Rainfall         10/13/2007 03:26      0.00000    
Rainfall         10/13/2007 03:27      0.00000    
Rainfall         10/13/2007 03:28      0.00000    
Rainfall         10/13/2007 03:29      0.00000    
Rainfall         10/13/2007 03:30      0.00000    
Rainfall         10/13/2007 03:31      0.00000    
Rainfall         10/13/2007 03:32      0.00000    
Rainfall         10/13/2007 03:33      0.00000    
Rainfall         10/13/2007 03:34      0.00000    
Rainfall         10/13/2007 03:35      0.00000    
Rainfall         10/13/2007 03:36      0.00000    
Rainfall         10/13/2007 03:37      0.00000    
Rainfall         10/13/2007 03:38      0.00000    
Rainfall         10/13/2007 03:39      0.00000    
Rainfall         10/13/2007 03:40      0.00000    
Rainfall         10/13/2007 03:41      0.00000    
Rainfall         10/13/2007 03:42      0.00000    
Rainfall         10/13/2007 03:43      0.00000    
Rainfall         10/13/2007 03:44      0.00000    
Rainfall         10/13/2007 03:45      0.00000    
Rainfall         10/13/2007 03:46      0.00000    
Rainfall         10/13/2007 03:47      0.00000    
Rainfall         10/13/2007 03:48      0.00000    
Rainfall         10/13/2007 03:49      0.00000    
Rainfall         10/13/2007 03:50      0.00000    
Rainfall         10/13/2007 03:51      0.00000    
Rainfall         10/13/2007 03:52      0.00000    
Rainfall         10/13/2007 03:53      0.00000    
Rainfall         10/13/2007 03:54      0.00000    
Rainfall         10/13/2007 03:55      0.00000    
Rainfall         10/13/2007 03:56      0.00000    
Rainfall         10/13/2007 03:57      0.00000    
Rainfall         10/13/2007 03:58      0.00000    
Rainfall         10/13/2007 03:59      0.00000    
Rainfall         10/13/2007 04:00      0.00000    
Rainfall         10/13/2007 04:01      0.00000    
Rainfall         10/13/2007 04:02      0.00000    
Rainfall         10/13/2007 04:03      0.00000    
Rainfall         10/13/2007 04:04      0.00000    
Rainfall         10/13/2007 04:05      0.00000    
Rainfall         10/13/2007 04:06      0.00000    
Rainfall         10/13/2007 04:07      0.00000    
Rainfall         10/13/2007 04:08      0.00000    
Rainfall         10/13/2007 04:09      0.00000    
Rainfall         10/13/2007 04:10      0.00000    
Rainfall         10/13/2007 04:11      0.00000    
Rainfall         10/13/2007 04:12      0.00000    
Rainfall         10/13/2007 04:13      0.00000    
Rainfall         10/13/2007 04:14      0.00000    
Rainfall         10/13/2007 04:15      0.00000    
Rainfall         10/13/2007 04:16      0.00000    
Rainfall         10/13/2007 04:17      0.00000    
Rainfall         10/13/2007 04:18      0.00000    
Rainfall         10/13/2007 04:19      0.00000    
Rainfall         10/13/2007 04:20      0.00000    
Rainfall         10/13/2007 04:21      0.00000    
Rainfall         10/13/2007 04:22      0.00000    
Rainfall         10/13/2007 04:23      0.00000    
Rainfall         10/13/2007 04:24      0.00000    
Rainfall         10/13/2007 04:25      0.00000    
Rainfall         10/13/2007 04:26      0.00000    
Rainfall         10/13/2007 04:27      0.00000    
Rainfall         10/13/2007 04:28      0.00000    
Rainfall         10/13/2007 04:29      0.00000    
Rainfall         10/13/2007 04:30      0.00000    
Rainfall         10/13/2007 04:31      0.00000    
Rainfall         10/13/2007 04:32      0.00000    
Rainfall         10/13/2007 04:33      0.00000    
Rainfall         10/13/2007 04:34      0.00000    
Rainfall         10/13/2007 04:35      0.00000    
Rainfall         10/13/2007 04:36      0.00000    
Rainfall         10/13/2007 04:37      0.00000    
Rainfall         10/13/2007 04:38      0.00000    
Rainfall         10/13/2007 04:39      0.00000    
Rainfall         10/13/2007 04:40      0.00000    
Rainfall         10/13/2007 04:41      0.00000    
Rainfall         10/13/2007 04:42      0.00000    
Rainfall         10/13/2007 04:43      0.00000    
Rainfall         10/13/2007 04:44      0.00000    
Rainfall         10/13/2007 04:45      0.00000    
Rainfall         10/13/2007 04:46      0.00000    
Rainfall         10/13/2007 04:47      0.00000    
Rainfall         10/13/2007 04:48      0.00000    
Rainfall         10/13/2007 04:49      0.00000    
Rainfall         10/13/2007 04:50      0.00000    
Rainfall         10/13/2007 04:51      0.00000    
Rainfall         10/13/2007 04:52      0.00000    
Rainfall         10/13/2007 04:53      0.00000    
Rainfall         10/13/2007 04:54      0.00000    
Rainfall         10/13/2007 04:55      0.00000    
Rainfall         10/13/2007 04:56      0.00000    
Rainfall         10/13/2007 04:57      0.00000    
Rainfall         10/13/2007 04:58      0.00000    
Rainfall         10/13/2007 04:59      0.00000    
Rainfall         10/13/2007 05:00      0.00000    
Rainfall         10/13/2007 05:01      0.00000    
Rainfall         10/13/2007 05:02      0.00000    
Rainfall         10/13/2007 05:03      0.00000    
Rainfall         10/13/2007 05:04      0.00000    
Rainfall         10/13/2007 05:05      0.00000    
Rainfall         10/13/2007 05:06      0.00000    
Rainfall         10/13/2007 05:07      0.00000    
Rainfall         10/13/2007 05:08      0.00000    
Rainfall         10/13/2007 05:09      0.00000    
Rainfall         10/13/2007 05:10      0.00000    
Rainfall         10/13/2007 05:11      0.00000    
Rainfall         10/13/2007 05:12      0.00000    
Rainfall         10/13/2007 05:13      0.00000    
Rainfall         10/13/2007 05:14      0.00000    
Rainfall         10/13/2007 05:15      0.00000    
Rainfall         10/13/2007 05:16      0.00000    
Rainfall         10/13/2007 05:17      0.00000    
Rainfall         10/13/2007 05:18      0.00000    
Rainfall         10/13/2007 05:19      0.00000    
Rainfall         10/13/2007 05:20      0.00000    
Rainfall         10/13/2007 05:21      0.00000    
Rainfall         10/13/2007 05:22      0.00000    
Rainfall         10/13/2007 05:23      0.00000    
Rainfall         10/13/2007 05:24      0.00000    
Rainfall         10/13/2007 05:25      0.00000    
Rainfall         10/13/2007 05:26      0.00000    
Rainfall         10/13/2007 05:27      0.00000    
Rainfall         10/13/2007 05:28      0.00000    
Rainfall         10/13/2007 05:29      0.00000    
Rainfall         10/13/2007 05:30      0.00000    
Rainfall         10/13/2007 05:31      0.00000    
Rainfall         10/13/2007 05:32      0.00000    
Rainfall         10/13/2007 05:33      0.00000    
Rainfall         10/13/2007 05:34      0.00000    
Rainfall         10/13/2007 05:35      0.00000    
Rainfall         10/13/2007 05:36      0.00000    
Rainfall         10/13/2007 05:37      0.00000    
Rainfall         10/13/2007 05:38      0.00000    
Rainfall         10/13/2007 05:39      0.00000    
Rainfall         10/13/2007 05:40      0.00000    
Rainfall         10/13/2007 05:41      0.00000    
Rainfall         10/13/2007 05:42      0.00000    
Rainfall         10/13/2007 05:43      0.00000    
Rainfall         10/13/2007 05:44      0.00000    
Rainfall         10/13/2007 05:45      0.00000    
Rainfall         10/13/2007 05:46      0.00000    
Rainfall         10/13/2007 05:47      0.00000    
Rainfall         10/13/2007 05:48      0.00000    
Rainfall         10/13/2007 05:49      0.00000    
Rainfall         10/13/2007 05:50      0.00000    
Rainfall         10/13/2007 05:51      0.00000    
Rainfall         10/13/2007 05:52      0.00000    
Rainfall         10/13/2007 05:53      0.00000    
Rainfall         10/13/2007 05:54      0.00000    
Rainfall         10/13/2007 05:55      0.00000    
Rainfall         10/13/2007 05:56      0.00000    
Rainfall         10/13/2007 05:57      0.00000    
Rainfall         10/13/2007 05:58      0.00000    
Rainfall         10/13/2007 05:59      0.00000    
Rainfall         10/13/2007 06:00      0.00000    
Rainfall         10/13/2007 06:01      0.00000    
Rainfall         10/13/2007 06:02      0.00000    
Rainfall         10/13/2007 06:03      0.00000    
Rainfall         10/13/2007 06:04      0.00000    
Rainfall         10/13/2007 06:05      0.00000    
Rainfall         10/13/2007 06:06      0.00000    
Rainfall         10/13/2007 06:07      0.00000    
Rainfall         10/13/2007 06:08      0.00000    
Rainfall         10/13/2007 06:09      0.00000    
Rainfall         10/13/2007 06:10      0.00000    
Rainfall         10/13/2007 06:11      0.00000    
Rainfall         10/13/2007 06:12      0.00000    
Rainfall         10/13/2007 06:13      0.00000    
Rainfall         10/13/2007 06:14      0.00000    
Rainfall         10/13/2007 06:15      0.00000    
Rainfall         10/13/2007 06:16      0.00000    
Rainfall         10/13/2007 06:17      0.00000    
Rainfall         10/13/2007 06:18      0.00000    
Rainfall         10/13/2007 06:19      0.00000    
Rainfall         10/13/2007 06:20      0.00000    
Rainfall         10/13/2007 06:21      0.00000    
Rainfall         10/13/2007 06:22      0.00000    
Rainfall         10/13/2007 06:23      0.00000    
Rainfall         10/13/2007 06:24      0.00000    
Rainfall         10/13/2007 06:25      0.00000    
Rainfall         10/13/2007 06:26      0.00000    
Rainfall         10/13/2007 06:27      0.00000    
Rainfall         10/13/2007 06:28      0.00000    
Rainfall         10/13/2007 06:29      0.00000    
Rainfall         10/13/2007 06:30      0.00000    
Rainfall         10/13/2007 06:31      0.00000    
Rainfall         10/13/2007 06:32      0.00000    
Rainfall         10/13/2007 06:33      0.00000    
Rainfall         10/13/2007 06:34      0.00000    
Rainfall         10/13/2007 06:35      0.00000    
Rainfall         10/13/2007 06:36      0.00000    
Rainfall         10/13/2007 06:37      0.00000    
Rainfall         10/13/2007 06:38      0.00000    
Rainfall         10/13/2007 06:39      0.00000    
Rainfall         10/13/2007 06:40      0.00000    