[TITLE]
;;Project Title/Notes

[OPTIONS]
;;Option             Value
FLOW_UNITS           LPS
INFILTRATION         CURVE_NUMBER
FLOW_ROUTING         DYNWAVE
LINK_OFFSETS         DEPTH
MIN_SLOPE            0
ALLOW_PONDING        NO
SKIP_STEADY_STATE    NO

START_DATE           10/08/2007
START_TIME           00:00:00
REPORT_START_DATE    10/08/2007
REPORT_START_TIME    00:00:00
END_DATE             10/09/2007
END_TIME             00:00:00
SWEEP_START          01/01
SWEEP_END            12/31
DRY_DAYS             0
REPORT_STEP          00:01:00
WET_STEP             00:01:00
DRY_STEP             00:01:00
ROUTING_STEP         0:00:10 
RULE_STEP            00:01:00

INERTIAL_DAMPING     PARTIAL
NORMAL_FLOW_LIMITED  BOTH
FORCE_MAIN_EQUATION  H-W
VARIABLE_STEP        0.75
LENGTHENING_STEP     0
MIN_SURFAREA         1.167
MAX_TRIALS           8
HEAD_TOLERANCE       0.0015
SYS_FLOW_TOL         5
LAT_FLOW_TOL         5
MINIMUM_STEP         0.5
THREADS              1

[FILES]
;;Interfacing Files
USE HOTSTART "G:\My Drive\Tesis\4_EjecutablesSWMMBase\Nivel_1\08Oct2007\Hotstart_08-10-2007.hsf"

[EVAPORATION]
;;Data Source    Parameters
;;-------------- ----------------
CONSTANT         0.0
DRY_ONLY         NO

[RAINGAGES]
;;Name           Format    Interval SCF      Source    
;;-------------- --------- ------ ------ ----------
Gauge            CUMULATIVE 00:01    1.0      TIMESERIES Rainfall        

[SUBCATCHMENTS]
;;Name           Rain Gage        Outlet           Area     %Imperv  Width    %Slope   CurbLen  SnowPack        
;;-------------- ---------------- ---------------- -------- -------- -------- -------- -------- ----------------
C1               Gauge            P8               23.6659  45.39    463.36   1.555    0                        
C2               Gauge            P8               7.3780   35.57    203.61   1.566    0                        
C3               Gauge            P8               15.8149  28.05    285.94   1.732    0                        

[SUBAREAS]
;;Subcatchment   N-Imperv   N-Perv     S-Imperv   S-Perv     PctZero    RouteTo    PctRouted 
;;-------------- ---------- ---------- ---------- ---------- ---------- ---------- ----------
C1               0.015      0.05       2.00       2.00       42.57      PERVIOUS   32.626    
C2               0.015      0.05       2.00       2.00       50.52      PERVIOUS   40.358    
C3               0.015      0.05       2.00       2.00       54.09      PERVIOUS   47.042    

[INFILTRATION]
;;Subcatchment   CurveNum              DryTime   
;;-------------- ---------- ---------- ----------
C1               74.952     0.5        7         
C2               76.269     0.5        7         
C3               75.218     0.5        7         

[JUNCTIONS]
;;Name           Elevation  MaxDepth   InitDepth  SurDepth   Aponded   
;;-------------- ---------- ---------- ---------- ---------- ----------
P1               2550.11    3.22       0          0          0         
P3               2550.66    2.49       0          0          0         
P5               2550.23    3.15       0          0          0         
P6               2550.12    2.69       0          0          0         
P7               2550.54    2.80       0          0          0         
P8               2548.76    2.99       0          0          0         
P9               2550.12    3.01       0          0          0         
P10              2550.06    3.50       0          0          0         
P11              2550.09    2.70       0          0          0         
P12              2549.41    2.40       0          0          0         
P14              2549.88    3.06       0          0          0         
P15              2549.50    2.77       0          0          0         
P16              2550.32    3.28       0          0          0         
P18              2550.09    2.70       0          0          0         
P19              2550.03    3.14       0          0          0         
P20              2550.49    2.96       0          0          0         
P21              2550.04    3.35       0          0          0         

[OUTFALLS]
;;Name           Elevation  Type       Stage Data       Gated    Route To        
;;-------------- ---------- ---------- ---------------- -------- ----------------
P83              2548.75    NORMAL                      NO                       

[CONDUITS]
;;Name           From Node        To Node          Length     Roughness  InOffset   OutOffset  InitFlow   MaxFlow   
;;-------------- ---------------- ---------------- ---------- ---------- ---------- ---------- ---------- ----------
L1               P1               P16              4.40       0.015      0.27       0.02       0          0         
L3               P3               P7               77.15      0.015      0          0.11       0          0         
L5               P5               P9               88.31      0.015      0          0          0          0         
L6               P6               P11              51.88      0.015      0.02       0          0          0         
L7               P7               P20              45.27      0.015      0          0.01       0          0         
L8               P8               P83              28.52      0.015      0          0          0          0         
L9               P9               P6               84.42      0.015      0          0          0          0         
L10              P10              P21              53.16      0.015      0          0          0          0         
L11              P11              P18              5.28       0.015      0          0          0          0         
L12              P12              P8               197.60     0.015      0.03       0.37       0          0         
L14              P14              P1               6.69       0.015      0.5        0          0          0         
L15              P15              P12              68.39      0.015      0.02       0          0          0         
L16              P16              P5               80.15      0.015      0          0          0          0         
L18              P18              P10              53.61      0.015      0.07       0.05       0          0         
L19              P19              P15              119.59     0.015      0          0          0          0         
L20              P20              P14              68.92      0.015      0          0          0          0         
L21              P21              P19              52.80      0.015      0.01       0.01       0          0         

[XSECTIONS]
;;Link           Shape        Geom1            Geom2      Geom3      Geom4      Barrels    Culvert   
;;-------------- ------------ ---------------- ---------- ---------- ---------- ---------- ----------
L1               RECT_CLOSED  1.2              1.18       0          0          1                    
L3               CIRCULAR     1                0          0          0          1                    
L5               CIRCULAR     1.2              0          0          0          1                    
L6               CIRCULAR     1.2              0          0          0          1                    
L7               CIRCULAR     1.2              0          0          0          1                    
L8               CIRCULAR     1.6              0          0          0          1                    
L9               CIRCULAR     1.2              0          0          0          1                    
L10              CIRCULAR     1.2              0          0          0          1                    
L11              CIRCULAR     1.2              0          0          0          1                    
L12              CIRCULAR     1.25             0          0          0          1                    
L14              RECT_CLOSED  1.2              1.18       0          0          1                    
L15              CIRCULAR     1.2              0          0          0          1                    
L16              CIRCULAR     1.2              0          0          0          1                    
L18              CIRCULAR     1.2              0          0          0          1                    
L19              CIRCULAR     1.25             0          0          0          1                    
L20              CIRCULAR     1.2              0          0          0          1                    
L21              CIRCULAR     1.2              0          0          0          1                    

[INFLOWS]
;;Node           Constituent      Time Series      Type     Mfactor  Sfactor  Baseline Pattern
;;-------------- ---------------- ---------------- -------- -------- -------- -------- --------
P3               FLOW             Discharge_In     FLOW     1.0      1.0              

[TIMESERIES]
;;Name           Date       Time       Value     
;;-------------- ---------- ---------- ----------
Rainfall         10/08/2007 00:00      0.00000   
Rainfall         10/08/2007 00:01      0.00000   
Rainfall         10/08/2007 00:02      0.00000   
Rainfall         10/08/2007 00:03      0.00000   
Rainfall         10/08/2007 00:04      0.00000   
Rainfall         10/08/2007 00:05      0.00000   
Rainfall         10/08/2007 00:06      0.00000   
Rainfall         10/08/2007 00:07      0.00000   
Rainfall         10/08/2007 00:08      0.00000   
Rainfall         10/08/2007 00:09      0.00000   
Rainfall         10/08/2007 00:10      0.00000   
Rainfall         10/08/2007 00:11      0.00000   
Rainfall         10/08/2007 00:12      0.00000   
Rainfall         10/08/2007 00:13      0.00000   
Rainfall         10/08/2007 00:14      0.00000   
Rainfall         10/08/2007 00:15      0.00000   
Rainfall         10/08/2007 00:16      0.00000   
Rainfall         10/08/2007 00:17      0.00000   
Rainfall         10/08/2007 00:18      0.00000   
Rainfall         10/08/2007 00:19      0.00000   
Rainfall         10/08/2007 00:20      0.00000   
Rainfall         10/08/2007 00:21      0.00000   
Rainfall         10/08/2007 00:22      0.00000   
Rainfall         10/08/2007 00:23      0.00000   
Rainfall         10/08/2007 00:24      0.00000   
Rainfall         10/08/2007 00:25      0.00000   
Rainfall         10/08/2007 00:26      0.00000   
Rainfall         10/08/2007 00:27      0.00000   
Rainfall         10/08/2007 00:28      0.00000   
Rainfall         10/08/2007 00:29      0.00000   
Rainfall         10/08/2007 00:30      0.00000   
Rainfall         10/08/2007 00:31      0.00000   
Rainfall         10/08/2007 00:32      0.00000   
Rainfall         10/08/2007 00:33      0.00000   
Rainfall         10/08/2007 00:34      0.00000   
Rainfall         10/08/2007 00:35      0.00000   
Rainfall         10/08/2007 00:36      0.00000   
Rainfall         10/08/2007 00:37      0.00000   
Rainfall         10/08/2007 00:38      0.00000   
Rainfall         10/08/2007 00:39      0.00000   
Rainfall         10/08/2007 00:40      0.00000   
Rainfall         10/08/2007 00:41      0.00000   
Rainfall         10/08/2007 00:42      0.00000   
Rainfall         10/08/2007 00:43      0.00000   
Rainfall         10/08/2007 00:44      0.00000   
Rainfall         10/08/2007 00:45      0.00000   
Rainfall         10/08/2007 00:46      0.00000   
Rainfall         10/08/2007 00:47      0.00000   
Rainfall         10/08/2007 00:48      0.00000   
Rainfall         10/08/2007 00:49      0.19890   
Rainfall         10/08/2007 00:50      0.20442   
Rainfall         10/08/2007 00:51      0.22406   
Rainfall         10/08/2007 00:52      0.24370   
Rainfall         10/08/2007 00:53      0.26334   
Rainfall         10/08/2007 00:54      0.28298   
Rainfall         10/08/2007 00:55      0.30262   
Rainfall         10/08/2007 00:56      0.32226   
Rainfall         10/08/2007 00:57      0.34190   
Rainfall         10/08/2007 00:58      0.36154   
Rainfall         10/08/2007 00:59      0.38118   
Rainfall         10/08/2007 01:00      0.40123   
Rainfall         10/08/2007 01:01      0.42914   
Rainfall         10/08/2007 01:02      0.45705   
Rainfall         10/08/2007 01:03      0.48496   
Rainfall         10/08/2007 01:04      0.51287   
Rainfall         10/08/2007 01:05      0.54078   
Rainfall         10/08/2007 01:06      0.56869   
Rainfall         10/08/2007 01:07      0.59660   
Rainfall         10/08/2007 01:08      0.61892   
Rainfall         10/08/2007 01:09      0.64050   
Rainfall         10/08/2007 01:10      0.66208   
Rainfall         10/08/2007 01:11      0.68366   
Rainfall         10/08/2007 01:12      0.70524   
Rainfall         10/08/2007 01:13      0.72682   
Rainfall         10/08/2007 01:14      0.74840   
Rainfall         10/08/2007 01:15      0.76998   
Rainfall         10/08/2007 01:16      0.79156   
Rainfall         10/08/2007 01:17      0.80277   
Rainfall         10/08/2007 01:18      0.80753   
Rainfall         10/08/2007 01:19      0.81229   
Rainfall         10/08/2007 01:20      0.81705   
Rainfall         10/08/2007 01:21      0.82181   
Rainfall         10/08/2007 01:22      0.82657   
Rainfall         10/08/2007 01:23      0.83133   
Rainfall         10/08/2007 01:24      0.83609   
Rainfall         10/08/2007 01:25      0.84085   
Rainfall         10/08/2007 01:26      0.84561   
Rainfall         10/08/2007 01:27      0.85037   
Rainfall         10/08/2007 01:28      0.85513   
Rainfall         10/08/2007 01:29      0.85989   
Rainfall         10/08/2007 01:30      0.86465   
Rainfall         10/08/2007 01:31      0.86941   
Rainfall         10/08/2007 01:32      0.87417   
Rainfall         10/08/2007 01:33      0.87893   
Rainfall         10/08/2007 01:34      0.88369   
Rainfall         10/08/2007 01:35      0.88845   
Rainfall         10/08/2007 01:36      0.89321   
Rainfall         10/08/2007 01:37      0.89797   
Rainfall         10/08/2007 01:38      0.90273   
Rainfall         10/08/2007 01:39      0.90749   
Rainfall         10/08/2007 01:40      0.91225   
Rainfall         10/08/2007 01:41      0.91701   
Rainfall         10/08/2007 01:42      0.92177   
Rainfall         10/08/2007 01:43      0.92653   
Rainfall         10/08/2007 01:44      0.93129   
Rainfall         10/08/2007 01:45      0.93605   
Rainfall         10/08/2007 01:46      0.94081   
Rainfall         10/08/2007 01:47      0.94557   
Rainfall         10/08/2007 01:48      0.95033   
Rainfall         10/08/2007 01:49      0.95509   
Rainfall         10/08/2007 01:50      0.95985   
Rainfall         10/08/2007 01:51      0.96461   
Rainfall         10/08/2007 01:52      0.96937   
Rainfall         10/08/2007 01:53      0.97413   
Rainfall         10/08/2007 01:54      0.97889   
Rainfall         10/08/2007 01:55      0.98365   
Rainfall         10/08/2007 01:56      0.98841   
Rainfall         10/08/2007 01:57      0.99317   
Rainfall         10/08/2007 01:58      0.99793   
Rainfall         10/08/2007 01:59      1.00460   
Rainfall         10/08/2007 02:00      1.01254   
Rainfall         10/08/2007 02:01      1.02048   
Rainfall         10/08/2007 02:02      1.02842   
Rainfall         10/08/2007 02:03      1.03636   
Rainfall         10/08/2007 02:04      1.04430   
Rainfall         10/08/2007 02:05      1.05224   
Rainfall         10/08/2007 02:06      1.06018   
Rainfall         10/08/2007 02:07      1.06812   
Rainfall         10/08/2007 02:08      1.07606   
Rainfall         10/08/2007 02:09      1.08400   
Rainfall         10/08/2007 02:10      1.09194   
Rainfall         10/08/2007 02:11      1.09988   
Rainfall         10/08/2007 02:12      1.10782   
Rainfall         10/08/2007 02:13      1.11576   
Rainfall         10/08/2007 02:14      1.12370   
Rainfall         10/08/2007 02:15      1.13164   
Rainfall         10/08/2007 02:16      1.13958   
Rainfall         10/08/2007 02:17      1.14752   
Rainfall         10/08/2007 02:18      1.15546   
Rainfall         10/08/2007 02:19      1.16340   
Rainfall         10/08/2007 02:20      1.17134   
Rainfall         10/08/2007 02:21      1.17928   
Rainfall         10/08/2007 02:22      1.18722   
Rainfall         10/08/2007 02:23      1.19516   
Rainfall         10/08/2007 02:24      1.20352   
Rainfall         10/08/2007 02:25      1.21252   
Rainfall         10/08/2007 02:26      1.22152   
Rainfall         10/08/2007 02:27      1.23052   
Rainfall         10/08/2007 02:28      1.23952   
Rainfall         10/08/2007 02:29      1.24852   
Rainfall         10/08/2007 02:30      1.25752   
Rainfall         10/08/2007 02:31      1.26652   
Rainfall         10/08/2007 02:32      1.27552   
Rainfall         10/08/2007 02:33      1.28452   
Rainfall         10/08/2007 02:34      1.29352   
Rainfall         10/08/2007 02:35      1.30252   
Rainfall         10/08/2007 02:36      1.31152   
Rainfall         10/08/2007 02:37      1.32052   
Rainfall         10/08/2007 02:38      1.32952   
Rainfall         10/08/2007 02:39      1.33852   
Rainfall         10/08/2007 02:40      1.34752   
Rainfall         10/08/2007 02:41      1.35652   
Rainfall         10/08/2007 02:42      1.36552   
Rainfall         10/08/2007 02:43      1.37452   
Rainfall         10/08/2007 02:44      1.38352   
Rainfall         10/08/2007 02:45      1.39252   
Rainfall         10/08/2007 02:46      1.40437   
Rainfall         10/08/2007 02:47      1.42891   
Rainfall         10/08/2007 02:48      1.45345   
Rainfall         10/08/2007 02:49      1.47799   
Rainfall         10/08/2007 02:50      1.50253   
Rainfall         10/08/2007 02:51      1.52707   
Rainfall         10/08/2007 02:52      1.55161   
Rainfall         10/08/2007 02:53      1.57615   
Rainfall         10/08/2007 02:54      1.60084   
Rainfall         10/08/2007 02:55      1.62976   
Rainfall         10/08/2007 02:56      1.65868   
Rainfall         10/08/2007 02:57      1.68760   
Rainfall         10/08/2007 02:58      1.71652   
Rainfall         10/08/2007 02:59      1.74544   
Rainfall         10/08/2007 03:00      1.77436   
Rainfall         10/08/2007 03:01      1.80455   
Rainfall         10/08/2007 03:02      1.84442   
Rainfall         10/08/2007 03:03      1.88429   
Rainfall         10/08/2007 03:04      1.92416   
Rainfall         10/08/2007 03:05      1.96403   
Rainfall         10/08/2007 03:06      2.00206   
Rainfall         10/08/2007 03:07      2.02360   
Rainfall         10/08/2007 03:08      2.04514   
Rainfall         10/08/2007 03:09      2.06668   
Rainfall         10/08/2007 03:10      2.08822   
Rainfall         10/08/2007 03:11      2.10976   
Rainfall         10/08/2007 03:12      2.13130   
Rainfall         10/08/2007 03:13      2.15284   
Rainfall         10/08/2007 03:14      2.17438   
Rainfall         10/08/2007 03:15      2.19592   
Rainfall         10/08/2007 03:16      2.20964   
Rainfall         10/08/2007 03:17      2.22160   
Rainfall         10/08/2007 03:18      2.23356   
Rainfall         10/08/2007 03:19      2.24552   
Rainfall         10/08/2007 03:20      2.25748   
Rainfall         10/08/2007 03:21      2.26944   
Rainfall         10/08/2007 03:22      2.28140   
Rainfall         10/08/2007 03:23      2.29336   
Rainfall         10/08/2007 03:24      2.30532   
Rainfall         10/08/2007 03:25      2.31728   
Rainfall         10/08/2007 03:26      2.32924   
Rainfall         10/08/2007 03:27      2.34120   
Rainfall         10/08/2007 03:28      2.35316   
Rainfall         10/08/2007 03:29      2.36512   
Rainfall         10/08/2007 03:30      2.37708   
Rainfall         10/08/2007 03:31      2.38904   
Rainfall         10/08/2007 03:32      2.40040   
Rainfall         10/08/2007 03:33      2.40636   
Rainfall         10/08/2007 03:34      2.41232   
Rainfall         10/08/2007 03:35      2.41828   
Rainfall         10/08/2007 03:36      2.42424   
Rainfall         10/08/2007 03:37      2.43020   
Rainfall         10/08/2007 03:38      2.43616   
Rainfall         10/08/2007 03:39      2.44212   
Rainfall         10/08/2007 03:40      2.44808   
Rainfall         10/08/2007 03:41      2.45404   
Rainfall         10/08/2007 03:42      2.46000   
Rainfall         10/08/2007 03:43      2.46596   
Rainfall         10/08/2007 03:44      2.47192   
Rainfall         10/08/2007 03:45      2.47788   
Rainfall         10/08/2007 03:46      2.48384   
Rainfall         10/08/2007 03:47      2.48980   
Rainfall         10/08/2007 03:48      2.49576   
Rainfall         10/08/2007 03:49      2.50172   
Rainfall         10/08/2007 03:50      2.50768   
Rainfall         10/08/2007 03:51      2.51364   
Rainfall         10/08/2007 03:52      2.51960   
Rainfall         10/08/2007 03:53      2.52556   
Rainfall         10/08/2007 03:54      2.53152   
Rainfall         10/08/2007 03:55      2.53748   
Rainfall         10/08/2007 03:56      2.54344   
Rainfall         10/08/2007 03:57      2.54940   
Rainfall         10/08/2007 03:58      2.55536   
Rainfall         10/08/2007 03:59      2.56132   
Rainfall         10/08/2007 04:00      2.56728   
Rainfall         10/08/2007 04:01      2.57324   
Rainfall         10/08/2007 04:02      2.57920   
Rainfall         10/08/2007 04:03      2.58516   
Rainfall         10/08/2007 04:04      2.59112   
Rainfall         10/08/2007 04:05      2.59708   
Rainfall         10/08/2007 04:06      2.60095   
Rainfall         10/08/2007 04:07      2.60095   
Rainfall         10/08/2007 04:08      2.60095   
Rainfall         10/08/2007 04:09      2.60095   
Rainfall         10/08/2007 04:10      2.60095   
Rainfall         10/08/2007 04:11      2.60095   
Rainfall         10/08/2007 04:12      2.60095   
Rainfall         10/08/2007 04:13      2.60095   
Rainfall         10/08/2007 04:14      2.60095   
Rainfall         10/08/2007 04:15      2.60095   
Rainfall         10/08/2007 04:16      2.60095   
Rainfall         10/08/2007 04:17      2.60095   
Rainfall         10/08/2007 04:18      2.60095   
Rainfall         10/08/2007 04:19      2.60095   
Rainfall         10/08/2007 04:20      2.60095   
Rainfall         10/08/2007 04:21      2.60095   
Rainfall         10/08/2007 04:22      2.60095   
Rainfall         10/08/2007 04:23      2.60095   
Rainfall         10/08/2007 04:24      2.60095   
Rainfall         10/08/2007 04:25      2.60095   
Rainfall         10/08/2007 04:26      2.60095   
Rainfall         10/08/2007 04:27      2.60095   
Rainfall         10/08/2007 04:28      2.60095   
Rainfall         10/08/2007 04:29      2.60095   
Rainfall         10/08/2007 04:30      2.60095   
Rainfall         10/08/2007 04:31      2.60095   
Rainfall         10/08/2007 04:32      2.60095   
Rainfall         10/08/2007 04:33      2.60095   
Rainfall         10/08/2007 04:34      2.60095   
Rainfall         10/08/2007 04:35      2.60095   
Rainfall         10/08/2007 04:36      2.60095   
Rainfall         10/08/2007 04:37      2.60095   
Rainfall         10/08/2007 04:38      2.60095   
Rainfall         10/08/2007 04:39      2.60095   
Rainfall         10/08/2007 04:40      2.60095   
Rainfall         10/08/2007 04:41      2.60095   
Rainfall         10/08/2007 04:42      2.60095   
Rainfall         10/08/2007 04:43      2.60095   
Rainfall         10/08/2007 04:44      2.60095   
Rainfall         10/08/2007 04:45      2.60095   
Rainfall         10/08/2007 04:46      2.60095   
Rainfall         10/08/2007 04:47      2.60095   
Rainfall         10/08/2007 04:48      2.60095   
Rainfall         10/08/2007 04:49      2.60095   
Rainfall         10/08/2007 04:50      2.60095   
Rainfall         10/08/2007 04:51      2.60095   
Rainfall         10/08/2007 04:52      2.60095   
Rainfall         10/08/2007 04:53      2.60095   
Rainfall         10/08/2007 04:54      2.60095   
Rainfall         10/08/2007 04:55      2.60095   
Rainfall         10/08/2007 04:56      2.60095   
Rainfall         10/08/2007 04:57      2.60095   
Rainfall         10/08/2007 04:58      2.60095   
Rainfall         10/08/2007 04:59      2.60095   
Rainfall         10/08/2007 05:00      2.60095   
Rainfall         10/08/2007 05:01      2.60095   
Rainfall         10/08/2007 05:02      2.60095   
Rainfall         10/08/2007 05:03      2.60095   
Rainfall         10/08/2007 05:04      2.60095   
Rainfall         10/08/2007 05:05      2.60095   
Rainfall         10/08/2007 05:06      2.60095   
Rainfall         10/08/2007 05:07      2.60095   
Rainfall         10/08/2007 05:08      2.60095   
Rainfall         10/08/2007 05:09      2.60095   
Rainfall         10/08/2007 05:10      2.60095   
Rainfall         10/08/2007 05:11      2.60095   
Rainfall         10/08/2007 05:12      2.60095   
Rainfall         10/08/2007 05:13      2.60095   
Rainfall         10/08/2007 05:14      2.60095   
Rainfall         10/08/2007 05:15      2.60095   
Rainfall         10/08/2007 05:16      2.60095   
Rainfall         10/08/2007 05:17      2.60095   
Rainfall         10/08/2007 05:18      2.60095   
Rainfall         10/08/2007 05:19      2.60095   
Rainfall         10/08/2007 05:20      2.60095   
Rainfall         10/08/2007 05:21      2.60095   
Rainfall         10/08/2007 05:22      2.60095   
Rainfall         10/08/2007 05:23      2.60095   
Rainfall         10/08/2007 05:24      2.60095   
Rainfall         10/08/2007 05:25      2.60095   
Rainfall         10/08/2007 05:26      2.60095   
Rainfall         10/08/2007 05:27      2.60095   
Rainfall         10/08/2007 05:28      2.60095   
Rainfall         10/08/2007 05:29      2.60095   
Rainfall         10/08/2007 05:30      2.60095   
Rainfall         10/08/2007 05:31      2.60095   
Rainfall         10/08/2007 05:32      2.60095   
Rainfall         10/08/2007 05:33      2.60095   
Rainfall         10/08/2007 05:34      2.60095   
Rainfall         10/08/2007 05:35      2.60095   
Rainfall         10/08/2007 05:36      2.60095   
Rainfall         10/08/2007 05:37      2.60095   
Rainfall         10/08/2007 05:38      2.60095   
Rainfall         10/08/2007 05:39      2.60095   
Rainfall         10/08/2007 05:40      2.60095   
Rainfall         10/08/2007 05:41      2.60095   
Rainfall         10/08/2007 05:42      2.60095   
Rainfall         10/08/2007 05:43      2.60095   
Rainfall         10/08/2007 05:44      2.60095   
Rainfall         10/08/2007 05:45      2.60095   
Rainfall         10/08/2007 05:46      2.60095   
Rainfall         10/08/2007 05:47      2.60095   
Rainfall         10/08/2007 05:48      2.60095   
Rainfall         10/08/2007 05:49      2.60095   
Rainfall         10/08/2007 05:50      2.60095   
Rainfall         10/08/2007 05:51      2.60095   
Rainfall         10/08/2007 05:52      2.60095   
Rainfall         10/08/2007 05:53      2.60095   
Rainfall         10/08/2007 05:54      2.60095   
Rainfall         10/08/2007 05:55      2.60095   
Rainfall         10/08/2007 05:56      2.60095   
Rainfall         10/08/2007 05:57      2.60095   
Rainfall         10/08/2007 05:58      2.60095   
Rainfall         10/08/2007 05:59      2.60095   
Rainfall         10/08/2007 06:00      2.60095   
Rainfall         10/08/2007 06:01      2.60095   
Rainfall         10/08/2007 06:02      2.60095   
Rainfall         10/08/2007 06:03      2.60095   
Rainfall         10/08/2007 06:04      2.60095   
Rainfall         10/08/2007 06:05      2.60095   
Rainfall         10/08/2007 06:06      2.60095   
Rainfall         10/08/2007 06:07      2.60095   
Rainfall         10/08/2007 06:08      2.60095   
Rainfall         10/08/2007 06:09      2.60095   
Rainfall         10/08/2007 06:10      2.60095   
Rainfall         10/08/2007 06:11      2.60095   
Rainfall         10/08/2007 06:12      2.60095   
Rainfall         10/08/2007 06:13      2.60095   
Rainfall         10/08/2007 06:14      2.60095   
Rainfall         10/08/2007 06:15      2.60095   
Rainfall         10/08/2007 06:16      2.60095   
Rainfall         10/08/2007 06:17      2.60095   
Rainfall         10/08/2007 06:18      2.60095   
Rainfall         10/08/2007 06:19      2.60095   
Rainfall         10/08/2007 06:20      2.60095   
Rainfall         10/08/2007 06:21      2.60095   
Rainfall         10/08/2007 06:22      2.60095   
Rainfall         10/08/2007 06:23      2.60095   
Rainfall         10/08/2007 06:24      2.60095   
Rainfall         10/08/2007 06:25      2.60095   
Rainfall         10/08/2007 06:26      2.60095   
Rainfall         10/08/2007 06:27      2.60095   
Rainfall         10/08/2007 06:28      2.60095   
Rainfall         10/08/2007 06:29      2.60095   
Rainfall         10/08/2007 06:30      2.60095   
Rainfall         10/08/2007 06:31      2.60095   
Rainfall         10/08/2007 06:32      2.60095   
Rainfall         10/08/2007 06:33      2.60095   
Rainfall         10/08/2007 06:34      2.60095   
Rainfall         10/08/2007 06:35      2.60095   
Rainfall         10/08/2007 06:36      2.60095   
Rainfall         10/08/2007 06:37      2.60095   
Rainfall         10/08/2007 06:38      2.60095   
Rainfall         10/08/2007 06:39      2.60095   
Rainfall         10/08/2007 06:40      2.60095   
Rainfall         10/08/2007 06:41      2.60095   
Rainfall         10/08/2007 06:42      2.60095   
Rainfall         10/08/2007 06:43      2.60095   
Rainfall         10/08/2007 06:44      2.60095   
Rainfall         10/08/2007 06:45      2.60095   
Rainfall         10/08/2007 06:46      2.60095   
Rainfall         10/08/2007 06:47      2.60095   
Rainfall         10/08/2007 06:48      2.60095   