[TITLE]
;;Project Title/Notes

[OPTIONS]
;;Option             Value
FLOW_UNITS           LPS
INFILTRATION         CURVE_NUMBER
FLOW_ROUTING         DYNWAVE
LINK_OFFSETS         DEPTH
MIN_SLOPE            0
ALLOW_PONDING        NO
SKIP_STEADY_STATE    NO

START_DATE           10/13/2007
START_TIME           00:00:00
REPORT_START_DATE    10/13/2007
REPORT_START_TIME    00:00:00
END_DATE             10/14/2007
END_TIME             13:00:00
SWEEP_START          01/01
SWEEP_END            12/31
DRY_DAYS             0
REPORT_STEP          00:01:00
WET_STEP             00:01:00
DRY_STEP             00:01:00
ROUTING_STEP         0:00:10 
RULE_STEP            00:01:00

INERTIAL_DAMPING     PARTIAL
NORMAL_FLOW_LIMITED  BOTH
FORCE_MAIN_EQUATION  H-W
VARIABLE_STEP        0.75
LENGTHENING_STEP     0
MIN_SURFAREA         1.167
MAX_TRIALS           8
HEAD_TOLERANCE       0.0015
SYS_FLOW_TOL         5
LAT_FLOW_TOL         5
MINIMUM_STEP         0.5
THREADS              1

[FILES]
;;Interfacing Files
SAVE HOTSTART "G:\My Drive\Tesis\4_EjecutablesSWMMBase\Nivel_3\13Oct2007\Hotstart_13-10-2007_TMP.hsf"

[EVAPORATION]
;;Data Source    Parameters
;;-------------- ----------------
CONSTANT         0.0
DRY_ONLY         NO

[RAINGAGES]
;;Name           Format    Interval SCF      Source    
;;-------------- --------- ------ ------ ----------
Gauge            CUMULATIVE 00:01    1.0      TIMESERIES Rainfall        

[SUBCATCHMENTS]
;;Name           Rain Gage        Outlet           Area     %Imperv  Width    %Slope   CurbLen  SnowPack        
;;-------------- ---------------- ---------------- -------- -------- -------- -------- -------- ----------------
C1               Gauge            P16              0.0096   61.51    9.77     0.76     0                        
C2               Gauge            P32              0.2727   41.67    112.72   1.77     0                        
C3               Gauge            P13              0.7316   28.36    102.55   1.55     0                        
C4               Gauge            P7               0.2949   53.88    82.21    1.14     0                        
C5               Gauge            P2               0.4108   2.78     67.12    2.32     0                        
C6               Gauge            P9               0.8959   38.01    185.44   1.14     0                        
C7               Gauge            P11              0.3919   69.46    113.33   2.01     0                        
C8               Gauge            P20              0.2020   76.28    86.52    1.60     0                        
C9               Gauge            P38              0.4529   47.57    145.04   2.00     0                        
C10              Gauge            P6               0.6819   55.59    160.96   1.41     0                        
C11              Gauge            P21              0.2413   26.49    90.80    1.29     0                        
C12              Gauge            P18              0.0110   78.24    21.38    1.46     0                        
C13              Gauge            P8               1.3465   14.69    136.43   1.35     0                        
C14              Gauge            P17              0.1920   95.65    106.98   1.41     0                        
C15              Gauge            P1               0.0081   8.21     15.41    1.18     0                        
C16              Gauge            P12              0.2760   37.35    75.24    0.78     0                        
C17              Gauge            P5               0.7351   64.34    167.85   1.04     0                        
C18              Gauge            P11              0.0514   58.75    43.68    1.52     0                        
C19              Gauge            P30              0.6024   41.91    189.97   1.18     0                        
C20              Gauge            P10              0.4268   82.30    141.22   1.86     0                        
C21              Gauge            P15              1.1265   15.87    187.23   1.35     0                        
C22              Gauge            P14              0.5305   72.14    143.02   1.83     0                        
C23              Gauge            P33              0.4979   4.05     121.05   1.72     0                        
C24              Gauge            P19              0.3714   55.43    120.84   1.62     0                        
C25              Gauge            P77              0.0484   57.90    33.66    1.60     0                        
C26              Gauge            P76              0.6447   19.59    168.22   1.16     0                        
C27              Gauge            P46              1.7531   38.13    156.86   1.60     0                        
C28              Gauge            P58              1.2657   10.28    160.17   1.56     0                        
C29              Gauge            P59              0.2287   23.19    48.82    1.16     0                        
C30              Gauge            P74              0.1456   92.28    62.38    1.71     0                        
C31              Gauge            P53              0.6751   20.31    147.77   1.27     0                        
C32              Gauge            P8               0.6128   1.23     109.72   3.07     0                        
C33              Gauge            P61              0.4712   60.64    144.90   1.42     0                        
C34              Gauge            P46              0.4864   33.26    91.55    1.41     0                        
C35              Gauge            P31              0.6506   79.08    170.89   1.99     0                        
C36              Gauge            P62              0.7800   49.83    161.38   1.50     0                        
C37              Gauge            P73              0.6724   45.07    164.34   2.60     0                        
C38              Gauge            P37              0.3914   61.75    99.65    1.51     0                        
C39              Gauge            P2               0.7247   14.23    136.39   1.87     0                        
C40              Gauge            P39              0.2385   78.25    96.69    1.78     0                        
C41              Gauge            P34              0.0691   84.04    26.56    1.83     0                        
C42              Gauge            P25              1.1017   0.00     185.46   1.64     0                        
C43              Gauge            P70              0.8576   51.52    188.35   1.39     0                        
C44              Gauge            P64              2.0105   32.78    320.02   2.56     0                        
C45              Gauge            P42              1.4126   12.90    182.96   1.54     0                        
C46              Gauge            P57              0.4481   50.21    91.92    1.01     0                        
C47              Gauge            P37              0.1502   9.39     70.69    1.65     0                        
C48              Gauge            P41              0.6124   82.53    132.30   1.29     0                        
C49              Gauge            P67              0.4076   42.58    113.67   1.85     0                        
C50              Gauge            P59              0.3229   57.76    60.14    1.50     0                        
C51              Gauge            P26              0.0805   54.90    51.29    1.53     0                        
C52              Gauge            P47              0.9755   46.81    201.72   2.22     0                        
C53              Gauge            P79              0.7518   52.12    175.89   1.44     0                        
C54              Gauge            P12              0.4363   27.54    100.00   2.00     0                        
C55              Gauge            P55              1.1967   65.65    131.16   1.75     0                        
C56              Gauge            P40              0.0249   60.10    30.72    0.67     0                        
C57              Gauge            P68              0.9930   61.95    123.98   1.73     0                        
C58              Gauge            P45              0.6617   61.07    130.61   1.12     0                        
C59              Gauge            P8               0.7361   31.32    115.20   1.88     0                        
C60              Gauge            P1               0.0449   64.06    31.61    1.23     0                        
C61              Gauge            P29              1.2803   23.04    111.69   1.17     0                        
C62              Gauge            P82              0.7339   14.73    208.41   1.06     0                        
C63              Gauge            P50              0.8826   86.73    169.37   1.44     0                        
C64              Gauge            P59              0.6356   58.51    83.19    1.64     0                        
C65              Gauge            P26              0.3481   74.64    63.40    1.54     0                        
C66              Gauge            P27              0.0286   57.43    25.33    0.74     0                        
C67              Gauge            P23              0.9909   30.97    184.51   2.24     0                        
C68              Gauge            P75              0.3646   57.12    131.95   1.65     0                        
C69              Gauge            P35              0.0624   66.21    51.99    1.10     0                        
C70              Gauge            P27              0.0868   36.20    31.04    3.27     0                        
C71              Gauge            P36              0.8321   58.01    216.52   1.62     0                        
C72              Gauge            P68              0.4340   73.19    99.83    2.37     0                        
C73              Gauge            P68              0.5828   50.69    72.85    1.29     0                        
C74              Gauge            P77              0.0083   87.43    14.32    1.05     0                        
C75              Gauge            P66              0.5870   44.22    153.67   1.90     0                        
C76              Gauge            P78              0.4223   83.15    144.43   1.23     0                        
C77              Gauge            P3               0.0332   87.04    25.79    1.05     0                        
C78              Gauge            P48              0.2082   8.06     60.75    1.80     0                        
C79              Gauge            P22              1.5030   7.17     158.66   0.94     0                        
C80              Gauge            P7               0.0460   62.53    43.00    1.79     0                        
C81              Gauge            P33              2.3869   0.00     343.05   1.55     0                        
C82              Gauge            P27              0.1181   15.64    35.61    1.47     0                        
C83              Gauge            P12              0.3077   27.12    79.90    2.01     0                        
C84              Gauge            P72              0.0729   71.62    40.96    1.47     0                        

[SUBAREAS]
;;Subcatchment   N-Imperv   N-Perv     S-Imperv   S-Perv     PctZero    RouteTo    PctRouted 
;;-------------- ---------- ---------- ---------- ---------- ---------- ---------- ----------
C1               0.015      0.05       2.00       2.00       0.00       PERVIOUS   21.572
C2               0.015      0.05       2.00       2.00       2.08       PERVIOUS   35.448
C3               0.015      0.05       2.00       2.00       85.17      PERVIOUS   46.746
C4               0.015      0.05       2.00       2.00       51.76      PERVIOUS   26.597
C5               0.015      0.05       2.00       2.00       0.85       PERVIOUS   83.327
C6               0.015      0.05       2.00       2.00       36.69      PERVIOUS   38.348
C7               0.015      0.05       2.00       2.00       20.65      PERVIOUS   16.657
C8               0.015      0.05       2.00       2.00       9.11       PERVIOUS   12.662
C9               0.015      0.05       2.00       2.00       71.58      PERVIOUS   31.029
C10              0.015      0.05       2.00       2.00       41.88      PERVIOUS   25.441
C11              0.015      0.05       2.00       2.00       59.38      PERVIOUS   48.532
C12              0.015      0.05       2.00       2.00       0.00       PERVIOUS   11.547
C13              0.015      0.05       2.00       2.00       88.90      PERVIOUS   61.672
C14              0.015      0.05       2.00       2.00       80.17      PERVIOUS   2.199
C15              0.015      0.05       2.00       2.00       0.00       PERVIOUS   71.347
C16              0.015      0.05       2.00       2.00       100.00     PERVIOUS   38.885
C17              0.015      0.05       2.00       2.00       53.79      PERVIOUS   19.788
C18              0.015      0.05       2.00       2.00       3.86       PERVIOUS   23.351
C19              0.015      0.05       2.00       2.00       66.74      PERVIOUS   35.262
C20              0.015      0.05       2.00       2.00       48.93      PERVIOUS   9.281
C21              0.015      0.05       2.00       2.00       0.28       PERVIOUS   60.163
C22              0.015      0.05       2.00       2.00       11.14      PERVIOUS   15.065
C23              0.015      0.05       2.00       2.00       0.00       PERVIOUS   79.875
C24              0.015      0.05       2.00       2.00       21.50      PERVIOUS   25.549
C25              0.015      0.05       2.00       2.00       0.00       PERVIOUS   23.908
C26              0.015      0.05       2.00       2.00       51.61      PERVIOUS   55.739
C27              0.015      0.05       2.00       2.00       52.95      PERVIOUS   38.251
C28              0.015      0.05       2.00       2.00       77.13      PERVIOUS   67.938
C29              0.015      0.05       2.00       2.00       0.00       PERVIOUS   51.844
C30              0.015      0.05       2.00       2.00       26.66      PERVIOUS   3.938
C31              0.015      0.05       2.00       2.00       26.85      PERVIOUS   54.933
C32              0.015      0.05       2.00       2.00       38.79      PERVIOUS   88.909
C33              0.015      0.05       2.00       2.00       52.66      PERVIOUS   22.128
C34              0.015      0.05       2.00       2.00       14.20      PERVIOUS   42.329
C35              0.015      0.05       2.00       2.00       15.43      PERVIOUS   11.073
C36              0.015      0.05       2.00       2.00       51.97      PERVIOUS   29.410
C37              0.015      0.05       2.00       2.00       52.48      PERVIOUS   32.866
C38              0.015      0.05       2.00       2.00       68.80      PERVIOUS   21.419
C39              0.015      0.05       2.00       2.00       36.31      PERVIOUS   62.277
C40              0.015      0.05       2.00       2.00       14.05      PERVIOUS   11.541
C41              0.015      0.05       2.00       2.00       56.67      PERVIOUS   8.327
C42              0.015      0.05       2.00       2.00       0.00       PERVIOUS   0      
C43              0.015      0.05       2.00       2.00       47.62      PERVIOUS   28.223
C44              0.015      0.05       2.00       2.00       71.22      PERVIOUS   42.746
C45              0.015      0.05       2.00       2.00       40.67      PERVIOUS   64.083
C46              0.015      0.05       2.00       2.00       55.28      PERVIOUS   29.141
C47              0.015      0.05       2.00       2.00       2.07       PERVIOUS   69.357
C48              0.015      0.05       2.00       2.00       66.26      PERVIOUS   9.154
C49              0.015      0.05       2.00       2.00       72.09      PERVIOUS   34.747
C50              0.015      0.05       2.00       2.00       20.08      PERVIOUS   24.000
C51              0.015      0.05       2.00       2.00       15.75      PERVIOUS   25.905
C52              0.015      0.05       2.00       2.00       56.06      PERVIOUS   31.582
C53              0.015      0.05       2.00       2.00       24.21      PERVIOUS   27.806
C54              0.015      0.05       2.00       2.00       81.24      PERVIOUS   47.521
C55              0.015      0.05       2.00       2.00       18.06      PERVIOUS   18.975
C56              0.015      0.05       2.00       2.00       0.00       PERVIOUS   22.476
C57              0.015      0.05       2.00       2.00       67.21      PERVIOUS   21.292
C58              0.015      0.05       2.00       2.00       66.60      PERVIOUS   21.853
C59              0.015      0.05       2.00       2.00       81.72      PERVIOUS   44.036
C60              0.015      0.05       2.00       2.00       24.90      PERVIOUS   19.963
C61              0.015      0.05       2.00       2.00       10.21      PERVIOUS   52.000
C62              0.015      0.05       2.00       2.00       1.69       PERVIOUS   61.620
C63              0.015      0.05       2.00       2.00       75.93      PERVIOUS   6.871
C64              0.015      0.05       2.00       2.00       47.04      PERVIOUS   23.508
C65              0.015      0.05       2.00       2.00       85.74      PERVIOUS   13.606
C66              0.015      0.05       2.00       2.00       99.72      PERVIOUS   24.217
C67              0.015      0.05       2.00       2.00       30.43      PERVIOUS   44.349
C68              0.015      0.05       2.00       2.00       51.78      PERVIOUS   24.422
C69              0.015      0.05       2.00       2.00       0.89       PERVIOUS   18.630
C70              0.015      0.05       2.00       2.00       6.99       PERVIOUS   39.834
C71              0.015      0.05       2.00       2.00       49.62      PERVIOUS   23.836
C72              0.015      0.05       2.00       2.00       2.12       PERVIOUS   14.449
C73              0.015      0.05       2.00       2.00       77.11      PERVIOUS   28.803
C74              0.015      0.05       2.00       2.00       0.00       PERVIOUS   6.496
C75              0.015      0.05       2.00       2.00       59.58      PERVIOUS   33.502
C76              0.015      0.05       2.00       2.00       25.92      PERVIOUS   8.813
C77              0.015      0.05       2.00       2.00       0.02       PERVIOUS   6.705
C78              0.015      0.05       2.00       2.00       30.83      PERVIOUS   71.610
C79              0.015      0.05       2.00       2.00       1.88       PERVIOUS   73.223
C80              0.015      0.05       2.00       2.00       0.00       PERVIOUS   20.924
C81              0.015      0.05       2.00       2.00       0.00       PERVIOUS   0
C82              0.015      0.05       2.00       2.00       32.37      PERVIOUS   60.453
C83              0.015      0.05       2.00       2.00       100.00     PERVIOUS   47.923
C84              0.015      0.05       2.00       2.00       0.79       PERVIOUS   15.371

[INFILTRATION]
;;Subcatchment   CurveNum              DryTime   
;;-------------- ---------- ---------- ----------
C1               72.08      0.5        7         
C2               73.48      0.5        7         
C3               72.65      0.5        7         
C4               72.22      0.5        7         
C5               72.96      0.5        7         
C6               72.18      0.5        7         
C7               73.52      0.5        7         
C8               74.90      0.5        7         
C9               72.31      0.5        7         
C10              73.25      0.5        7         
C11              72.46      0.5        7         
C12              73.80      0.5        7         
C13              86.31      0.5        7         
C14              74.00      0.5        7         
C15              74.00      0.5        7         
C16              79.09      0.5        7         
C17              72.66      0.5        7         
C18              71.99      0.5        7         
C19              73.56      0.5        7         
C20              73.73      0.5        7         
C21              75.95      0.5        7         
C22              76.60      0.5        7         
C23              76.91      0.5        7         
C24              74.36      0.5        7         
C25              70.00      0.5        7         
C26              74.43      0.5        7         
C27              75.13      0.5        7         
C28              76.21      0.5        7         
C29              73.20      0.5        7         
C30              76.91      0.5        7         
C31              73.04      0.5        7         
C32              78.10      0.5        7         
C33              72.42      0.5        7         
C34              73.68      0.5        7         
C35              72.76      0.5        7         
C36              74.26      0.5        7         
C37              74.90      0.5        7         
C38              71.40      0.5        7         
C39              72.32      0.5        7         
C40              73.60      0.5        7         
C41              71.64      0.5        7         
C42              74.85      0.5        7         
C43              73.04      0.5        7         
C44              73.69      0.5        7         
C45              74.80      0.5        7         
C46              72.39      0.5        7         
C47              72.75      0.5        7         
C48              73.00      0.5        7         
C49              72.05      0.5        7         
C50              72.34      0.5        7         
C51              73.61      0.5        7         
C52              77.32      0.5        7         
C53              73.04      0.5        7         
C54              73.11      0.5        7         
C55              73.32      0.5        7         
C56              70.28      0.5        7         
C57              73.54      0.5        7         
C58              72.64      0.5        7         
C59              84.55      0.5        7         
C60              72.17      0.5        7         
C61              76.71      0.5        7         
C62              75.87      0.5        7         
C63              81.60      0.5        7         
C64              72.16      0.5        7         
C65              73.57      0.5        7         
C66              73.69      0.5        7         
C67              72.64      0.5        7         
C68              71.42      0.5        7         
C69              74.23      0.5        7         
C70              72.59      0.5        7         
C71              72.30      0.5        7         
C72              74.67      0.5        7         
C73              72.20      0.5        7         
C74              70.00      0.5        7         
C75              72.80      0.5        7         
C76              74.28      0.5        7         
C77              74.01      0.5        7         
C78              70.77      0.5        7         
C79              75.14      0.5        7         
C80              75.45      0.5        7         
C81              78.23      0.5        7         
C82              73.64      0.5        7         
C83              75.49      0.5        7         
C84              73.09      0.5        7         

[JUNCTIONS]
;;Name           Elevation  MaxDepth   InitDepth  SurDepth   Aponded   
;;-------------- ---------- ---------- ---------- ---------- ----------
P1               2550.11    3.22       0          0          0         
P2               2550.91    2.84       0          0          0         
P3               2550.66    2.49       0          0          0         
P4               2550.91    2.84       0          0          0         
P5               2550.23    3.15       0          0          0         
P6               2550.12    2.69       0          0          0         
P7               2550.54    2.80       0          0          0         
P8               2548.76    2.99       0          0          0         
P9               2550.12    3.01       0          0          0         
P10              2550.06    3.50       0          0          0         
P11              2550.09    2.70       0          0          0         
P12              2549.41    2.40       0          0          0         
P13              2550.20    2.71       0          0          0         
P14              2549.88    3.06       0          0          0         
P15              2549.50    2.77       0          0          0         
P16              2550.32    3.28       0          0          0         
P17              2550.20    3.06       0          0          0         
P18              2550.09    2.70       0          0          0         
P19              2550.03    3.14       0          0          0         
P20              2550.49    2.96       0          0          0         
P21              2550.04    3.35       0          0          0         
P22              2550.07    2.28       0          0          0         
P23              2553.51    1.60       0          0          0         
P24              2551.05    2.16       0          0          0         
P25              2549.78    2.15       0          0          0         
P26              2550.66    1.93       0          0          0         
P27              2551.05    1.78       0          0          0         
P28              2550.56    1.29       0          0          0         
P29              2549.94    2.06       0          0          0         
P30              2550.89    1.64       0          0          0         
P31              2552.25    1.65       0          0          0         
P32              2549.99    2.37       0          0          0         
P33              2549.66    2.25       0          0          0         
P34              2551.02    1.90       0          0          0         
P35              2550.40    2.10       0          0          0         
P36              2552.81    1.60       0          0          0         
P37              2550.89    2.02       0          0          0         
P38              2553.12    1.58       0          0          0         
P39              2551.19    2.52       0          0          0         
P40              2551.36    2.40       0          0          0         
P41              2551.03    1.93       0          0          0         
P42              2549.78    2.15       0          0          0         
P43              2551.64    1.47       0          0          0         
P44              2551.54    1.41       0          0          0         
P45              2549.92    2.00       0          0          0         
P46              2550.20    1.93       0          0          0         
P47              2551.51    2.01       0          0          0         
P48              2550.77    1.92       0          0          0         
P49              2550.59    1.80       0          0          0         
P50              2550.82    1.90       0          0          0         
P51              2551.95    2.37       0          0          0         
P52              2551.33    1.35       0          0          0         
P53              2549.87    2.37       0          0          0         
P54              2551.96    2.46       0          0          0         
P55              2551.38    2.40       0          0          0         
P56              2549.46    3.80       0          0          0         
P57              2549.97    1.95       0          0          0         
P58              2549.48    2.64       0          0          0         
P59              2550.20    2.16       0          0          0         
P60              2550.38    1.62       0          0          0         
P61              2550.93    1.79       0          0          0         
P62              2550.57    2.03       0          0          0         
P63              2551.02    1.76       0          0          0         
P64              2551.22    1.63       0          0          0         
P65              2554.52    3.15       0          0          0         
P66              2552.00    1.91       0          0          0         
P67              2550.41    2.18       0          0          0         
P68              2551.20    1.72       0          0          0         
P69              2553.45    1.61       0          0          0         
P70              2551.45    1.55       0          0          0         
P71              2549.37    3.69       0          0          0         
P72              2550.98    1.42       0          0          0         
P73              2552.56    1.64       0          0          0         
P74              2552.07    1.64       0          0          0         
P75              2551.39    1.94       0          0          0         
P76              2550.79    1.96       0          0          0         
P77              2550.60    1.71       0          0          0         
P78              2551.54    1.92       0          0          0         
P79              2551.08    1.40       0          0          0         
P80              2549.88    2.26       0          0          0         
P81              2551.55    1.68       0          0          0         
P82              2550.00    2.00       0          0          0         

[OUTFALLS]
;;Name           Elevation  Type       Stage Data       Gated    Route To        
;;-------------- ---------- ---------- ---------------- -------- ----------------
P83              2548.75    NORMAL                      NO                       

[CONDUITS]