[TITLE]
;;Project Title/Notes

[OPTIONS]
;;Option             Value
FLOW_UNITS           LPS
INFILTRATION         CURVE_NUMBER
FLOW_ROUTING         DYNWAVE
LINK_OFFSETS         DEPTH
MIN_SLOPE            0
ALLOW_PONDING        NO
SKIP_STEADY_STATE    NO

START_DATE           10/13/2007
START_TIME           00:00:00
REPORT_START_DATE    10/13/2007
REPORT_START_TIME    00:00:00
END_DATE             10/13/2007
END_TIME             13:00:00
SWEEP_START          01/01
SWEEP_END            12/31
DRY_DAYS             0
REPORT_STEP          00:01:00
WET_STEP             00:01:00
DRY_STEP             00:01:00
ROUTING_STEP         0:00:10 
RULE_STEP            00:01:00

INERTIAL_DAMPING     PARTIAL
NORMAL_FLOW_LIMITED  BOTH
FORCE_MAIN_EQUATION  H-W
VARIABLE_STEP        0.75
LENGTHENING_STEP     0
MIN_SURFAREA         1.167
MAX_TRIALS           8
HEAD_TOLERANCE       0.0015
SYS_FLOW_TOL         5
LAT_FLOW_TOL         5
MINIMUM_STEP         0.5
THREADS              1

[FILES]
;;Interfacing Files
SAVE HOTSTART "G:\My Drive\Tesis\4_EjecutablesSWMMBase\Nivel_2\13Oct2007\Hotstart_13-10-2007_TMP.hsf"

[EVAPORATION]
;;Data Source    Parameters
;;-------------- ----------------
CONSTANT         0.0
DRY_ONLY         NO

[RAINGAGES]
;;Name           Format    Interval SCF      Source    
;;-------------- --------- ------ ------ ----------
Gauge            CUMULATIVE 00:01    1.0      TIMESERIES Rainfall        

[SUBCATCHMENTS]
;;Name           Rain Gage        Outlet           Area     %Imperv  Width    %Slope   CurbLen  SnowPack        
;;-------------- ---------------- ---------------- -------- -------- -------- -------- -------- ----------------
C1	             Gauge	          P9	           2.4290	57.12	 181.71	  1.294	   0                        
C2	             Gauge	          P12	           2.7051	24.63	 235.61	  1.417	   0                        
C3	             Gauge	          P13	           3.3314	39.35	 225.00	  1.795	   0                        
C4	             Gauge	          P11	           1.3188	65.68	 197.04	  1.592	   0                        
C5	             Gauge	          P3	           3.1048	42.63	 180.87	  2.138	   0                        
C6	             Gauge	          P15	           2.1796	37.13	 161.71	  1.492	   0                        
C7	             Gauge	          P8	           1.3482	14.69	 136.43	  1.349	   0                        
C8	             Gauge	          P59	           4.0919	48.08	 241.44	  1.635	   0                        
C9	             Gauge	          P8	           6.0193	3.51	 242.87	  1.735	   0                        
C10	             Gauge	          P22	           2.3874	24.63	 236.52	  1.123	   0                        
C11	             Gauge	          P76	           2.8923	29.48	 267.53	  2.202	   0                        
C12	             Gauge	          P45	           4.0325	41.99	 181.48	  1.459	   0                        
C13	             Gauge	          P8	           3.2862	19.97	 133.25	  1.481	   0                        
C14	             Gauge	          P7	           2.3947	69.85	 203.61	  1.601	   0                        
C15	             Gauge	          P26	           2.4669	77.87	 180.64	  1.427	   0                        
C16	             Gauge	          P68	           2.8708	58.24	 407.68	  1.634	   0                        

[SUBAREAS]
;;Subcatchment   N-Imperv   N-Perv     S-Imperv   S-Perv     PctZero    RouteTo    PctRouted 
;;-------------- ---------- ---------- ---------- ---------- ---------- ---------- ----------
C1               0.015      0.05       2.00	      2.00       31.99      PERVIOUS   24.424    
C2               0.015      0.05       2.00	      2.00       48.85      PERVIOUS   50.368    
C3               0.015      0.05       2.00	      2.00       29.20      PERVIOUS   37.270    
C4               0.015      0.05       2.00	      2.00       42.00      PERVIOUS   18.956    
C5               0.015      0.05       2.00	      2.00       50.61      PERVIOUS   34.705    
C6               0.015      0.05       2.00	      2.00       31.49      PERVIOUS   39.062    
C7               0.015      0.05       2.00	      2.00       88.90      PERVIOUS   61.679    
C8               0.015      0.05       2.00	      2.00       51.17      PERVIOUS   30.658    
C9               0.015      0.05       2.00	      2.00       36.57      PERVIOUS   81.277    
C10              0.015      0.05       2.00	      2.00       16.57      PERVIOUS   50.374    
C11              0.015      0.05       2.00	      2.00       65.65      PERVIOUS   45.702    
C12              0.015      0.05       2.00	      2.00       53.29      PERVIOUS   35.203    
C13              0.015      0.05       2.00	      2.00       48.64      PERVIOUS   55.307    
C14              0.015      0.05       2.00	      2.00       31.61      PERVIOUS   16.425    
C15              0.015      0.05       2.00	      2.00       69.28      PERVIOUS   11.754    
C16              0.015      0.05       2.00	      2.00       51.40      PERVIOUS   23.682    

[INFILTRATION]
;;Subcatchment   CurveNum              DryTime   
;;-------------- ---------- ---------- ----------
C1	             73.066	    0.5	       7         
C2	             74.739	    0.5	       7         
C3	             72.759	    0.5	       7         
C4	             73.272	    0.5	       7         
C5	             72.991	    0.5	       7         
C6	             75.181	    0.5	       7         
C7	             86.307	    0.5	       7         
C8	             74.121	    0.5	       7         
C9	             76.735	    0.5	       7         
C10	             74.639	    0.5	       7         
C11	             73.847	    0.5	       7         
C12	             73.717	    0.5	       7         
C13	             78.003	    0.5	       7         
C14	             72.714	    0.5	       7         
C15	             74.756	    0.5	       7         
C16	             73.155	    0.5	       7         

[JUNCTIONS]
;;Name           Elevation  MaxDepth   InitDepth  SurDepth   Aponded   
;;-------------- ---------- ---------- ---------- ---------- ----------
P1               2550.11    3.22       0          0          0         
P3               2550.66    2.49       0          0          0         
P5               2550.23    3.15       0          0          0         
P6               2550.12    2.69       0          0          0         
P7               2550.54    2.80       0          0          0         
P8               2548.76    2.99       0          0          0         
P9               2550.12    3.01       0          0          0         
P10              2550.06    3.50       0          0          0         
P11              2550.09    2.70       0          0          0         
P12              2549.41    2.40       0          0          0         
P13              2550.20    2.71       0          0          0         
P14              2549.88    3.06       0          0          0         
P15              2549.50    2.77       0          0          0         
P16              2550.32    3.28       0          0          0         
P17              2550.20    3.06       0          0          0         
P18              2550.09    2.70       0          0          0         
P19              2550.03    3.14       0          0          0         
P20              2550.49    2.96       0          0          0         
P21              2550.04    3.35       0          0          0         
P22              2550.07    2.28       0          0          0         
P25              2549.78    2.15       0          0          0         
P26              2550.66    1.93       0          0          0         
P27              2551.05    1.78       0          0          0         
P29              2549.94    2.06       0          0          0         
P32              2549.99    2.37       0          0          0         
P33              2549.66    2.25       0          0          0         
P34              2551.02    1.90       0          0          0         
P35              2550.40    2.10       0          0          0         
P37              2550.89    2.02       0          0          0         
P41              2551.03    1.93       0          0          0         
P42              2549.78    2.15       0          0          0         
P45              2549.92    2.00       0          0          0         
P46              2550.20    1.93       0          0          0         
P48              2550.77    1.92       0          0          0         
P50              2550.82    1.90       0          0          0         
P53              2549.87    2.37       0          0          0         
P57              2549.97    1.95       0          0          0         
P58              2549.48    2.64       0          0          0         
P59              2550.20    2.16       0          0          0         
P61              2550.93    1.79       0          0          0         
P62              2550.57    2.03       0          0          0         
P67              2550.41    2.18       0          0          0         
P68              2551.20    1.72       0          0          0         
P76              2550.79    1.96       0          0          0         
P77              2550.60    1.71       0          0          0         

[OUTFALLS]
;;Name           Elevation  Type       Stage Data       Gated    Route To        
;;-------------- ---------- ---------- ---------------- -------- ----------------
P83              2548.75    NORMAL                      NO                       

[CONDUITS]
;;Name           From Node        To Node          Length     Roughness  InOffset   OutOffset  InitFlow   MaxFlow   
;;-------------- ---------------- ---------------- ---------- ---------- ---------- ---------- ---------- ----------
L1               P1               P16              4.40       0.015      0.27       0.02       0          0         
L3               P3               P7               77.15      0.015      0          0.11       0          0         
L5               P5               P9               88.31      0.015      0          0          0          0         
L6               P6               P11              51.88      0.015      0.02       0          0          0         
L7               P7               P20              45.27      0.015      0          0.01       0          0         
L8               P8               P83              28.52      0.015      0          0          0          0         
L9               P9               P6               84.42      0.015      0          0          0          0         
L10              P10              P21              53.16      0.015      0          0          0          0         
L11              P11              P18              5.28       0.015      0          0          0          0         
L12              P12              P8               197.60     0.015      0.03       0.37       0          0         
L13              P13              P17              27.11      0.015      0          0          0          0         
L14              P14              P1               6.69       0.015      0.5        0          0          0         
L15              P15              P12              68.39      0.015      0.02       0          0          0         
L16              P16              P5               80.15      0.015      0          0          0          0         
L17              P17              P11              22.82      0.015      0.03       0.14       0          0         
L18              P18              P10              53.61      0.015      0.07       0.05       0          0         
L19              P19              P15              119.59     0.015      0          0          0          0         
L20              P20              P14              68.92      0.015      0          0          0          0         
L21              P21              P19              52.80      0.015      0.01       0.01       0          0         
L22              P22              P32              34.72      0.015      0          0          0          0         
L25              P25              P33              81.76      0.015      0.05       0.06       0          0         
L26              P26              P77              16.53      0.015      0          0.01       0          0         
L27              P27              P76              73.61      0.015      0          0.01       0          0         
L29              P29              P58              147.74     0.015      0.01       0.11       0          0         
L32              P32              P53              63.47      0.015      0.03       0          0          0         
L33              P33              P8               89.03      0.015      0          0.67       0          0         
L34              P34              P61              44.93      0.015      0.02       0          0          0         
L35              P35              P46              89.49      0.015      0.03       0.05       0          0         
L37              P37              P62              100.19     0.015      0          0.02       0          0         
L39              P3               P37              78.92      0.015      0.7        0.12       0          0         
L42              P41              P34              10.71      0.015      0          0          0          0         
L43              P42              P25              83.89      0.015      0.01       0          0          0         
L46              P45              P42              102.02     0.015      0          0          0          0         
L47              P46              P57              83.45      0.015      0          0          0          0         
L49              P7               P41              92.47      0.015      0.91       0.04       0          0         
L50              P48              P67              40.08      0.015      0          0.31       0          0         
L52              P50              P26              23.87      0.015      0          0.13       0          0         
L55              P53              P12              73.02      0.015      0.02       0.3        0          0         
L59              P57              P45              61.99      0.015      0.03       0.07       0          0         
L60              P58              P8               137.49     0.015      0          0.62       0          0         
L62              P59              P29              197.60     0.015      0          0          0          0         
L64              P61              P50              106.07     0.015      0.04       0          0          0         
L65              P62              P59              129.10     0.015      0          0.2        0          0         
L70              P67              P35              13.96      0.015      0          0          0          0         
L71              P68              P27              56.49      0.015      0          0          0          0         
L79              P76              P48              19.89      0.015      0          0          0          0         
L80              P77              P22              178.07     0.015      0          0.1        0          0         

[XSECTIONS]
;;Link           Shape        Geom1            Geom2      Geom3      Geom4      Barrels    Culvert   
;;-------------- ------------ ---------------- ---------- ---------- ---------- ---------- ----------
L1               RECT_CLOSED  1.2              1.18       0          0          1                    
L3               CIRCULAR     1                0          0          0          1                    
L5               CIRCULAR     1.2              0          0          0          1                    
L6               CIRCULAR     1.2              0          0          0          1                    
L7               CIRCULAR     1.2              0          0          0          1                    
L8               CIRCULAR     1.6              0          0          0          1                    
L9               CIRCULAR     1.2              0          0          0          1                    
L10              CIRCULAR     1.2              0          0          0          1                    
L11              CIRCULAR     1.2              0          0          0          1                    
L12              CIRCULAR     1.25             0          0          0          1                    
L13              CIRCULAR     1.05             0          0          0          1                    
L14              RECT_CLOSED  1.2              1.18       0          0          1                    
L15              CIRCULAR     1.2              0          0          0          1                    
L16              CIRCULAR     1.2              0          0          0          1                    
L17              CIRCULAR     1.05             0          0          0          1                    
L18              CIRCULAR     1.2              0          0          0          1                    
L19              CIRCULAR     1.25             0          0          0          1                    
L20              CIRCULAR     1.2              0          0          0          1                    
L21              CIRCULAR     1.2              0          0          0          1                    
L22              CIRCULAR     0.85             0          0          0          1                    
L25              CIRCULAR     0.9              0          0          0          1                    
L26              CIRCULAR     0.75             0          0          0          1                    
L27              CIRCULAR     0.4              0          0          0          1                    
L29              CIRCULAR     0.9              0          0          0          1                    
L32              CIRCULAR     0.85             0          0          0          1                    
L33              CIRCULAR     0.9              0          0          0          1                    
L34              CIRCULAR     0.6              0          0          0          1                    
L35              CIRCULAR     0.75             0          0          0          1                    
L37              CIRCULAR     0.65             0          0          0          1                    
L39              CIRCULAR     0.6              0          0          0          1                    
L42              CIRCULAR     0.6              0          0          0          1                    
L43              CIRCULAR     0.9              0          0          0          1                    
L46              CIRCULAR     0.9              0          0          0          1                    
L47              CIRCULAR     0.75             0          0          0          1                    
L49              CIRCULAR     0.6              0          0          0          1                    
L50              CIRCULAR     0.4              0          0          0          1                    
L52              CIRCULAR     0.55             0          0          0          1                    
L55              CIRCULAR     0.9              0          0          0          1                    
L59              CIRCULAR     0.85             0          0          0          1                    
L60              CIRCULAR     1                0          0          0          1                    
L62              CIRCULAR     0.9              0          0          0          1                    
L64              CIRCULAR     0.55             0          0          0          1                    
L65              CIRCULAR     0.7              0          0          0          1                    
L70              CIRCULAR     0.75             0          0          0          1                    
L71              CIRCULAR     0.35             0          0          0          1                    
L79              CIRCULAR     0.4              0          0          0          1                    
L80              CIRCULAR     0.75             0          0          0          1                    

[INFLOWS]
;;Node           Constituent      Time Series      Type     Mfactor  Sfactor  Baseline Pattern
;;-------------- ---------------- ---------------- -------- -------- -------- -------- --------
P3               FLOW             Discharge_In     FLOW     1.0      1.0              

[TIMESERIES]
;;Name           Date       Time       Value     
;;-------------- ---------- ---------- ----------
Rainfall         10/13/2007 00:00      0.00000    
Rainfall         10/13/2007 00:01      0.00000    
Rainfall         10/13/2007 00:02      0.00000    
Rainfall         10/13/2007 00:03      0.00000    
Rainfall         10/13/2007 00:04      0.00000    
Rainfall         10/13/2007 00:05      0.00000    
Rainfall         10/13/2007 00:06      0.00000    
Rainfall         10/13/2007 00:07      0.00000    
Rainfall         10/13/2007 00:08      0.00000    
Rainfall         10/13/2007 00:09      0.00000    
Rainfall         10/13/2007 00:10      0.00000    
Rainfall         10/13/2007 00:11      0.00000    
Rainfall         10/13/2007 00:12      0.00000    
Rainfall         10/13/2007 00:13      0.00000    
Rainfall         10/13/2007 00:14      0.00000    
Rainfall         10/13/2007 00:15      0.00000    
Rainfall         10/13/2007 00:16      0.00000    
Rainfall         10/13/2007 00:17      0.00000    
Rainfall         10/13/2007 00:18      0.00000    
Rainfall         10/13/2007 00:19      0.00000    
Rainfall         10/13/2007 00:20      0.00000    
Rainfall         10/13/2007 00:21      0.00000    
Rainfall         10/13/2007 00:22      0.00000    
Rainfall         10/13/2007 00:23      0.00000    
Rainfall         10/13/2007 00:24      0.00000    
Rainfall         10/13/2007 00:25      0.00000    
Rainfall         10/13/2007 00:26      0.00000    
Rainfall         10/13/2007 00:27      0.00000    
Rainfall         10/13/2007 00:28      0.00000    
Rainfall         10/13/2007 00:29      0.00000    
Rainfall         10/13/2007 00:30      0.00000    
Rainfall         10/13/2007 00:31      0.00000    
Rainfall         10/13/2007 00:32      0.00000    
Rainfall         10/13/2007 00:33      0.00000    
Rainfall         10/13/2007 00:34      0.00000    
Rainfall         10/13/2007 00:35      0.00000    
Rainfall         10/13/2007 00:36      0.00000    
Rainfall         10/13/2007 00:37      0.00000    
Rainfall         10/13/2007 00:38      0.00000    
Rainfall         10/13/2007 00:39      0.00000    
Rainfall         10/13/2007 00:40      0.00000    
Rainfall         10/13/2007 00:41      0.00000    
Rainfall         10/13/2007 00:42      0.00000    
Rainfall         10/13/2007 00:43      0.00000    
Rainfall         10/13/2007 00:44      0.00000    
Rainfall         10/13/2007 00:45      0.00000    
Rainfall         10/13/2007 00:46      0.00000    
Rainfall         10/13/2007 00:47      0.00000    
Rainfall         10/13/2007 00:48      0.00000    
Rainfall         10/13/2007 00:49      0.00000    
Rainfall         10/13/2007 00:50      0.00000    
Rainfall         10/13/2007 00:51      0.00000    
Rainfall         10/13/2007 00:52      0.00000    
Rainfall         10/13/2007 00:53      0.00000    
Rainfall         10/13/2007 00:54      0.00000    
Rainfall         10/13/2007 00:55      0.00000    
Rainfall         10/13/2007 00:56      0.00000    
Rainfall         10/13/2007 00:57      0.00000    
Rainfall         10/13/2007 00:58      0.00000    
Rainfall         10/13/2007 00:59      0.00000    
Rainfall         10/13/2007 01:00      0.00000    
Rainfall         10/13/2007 01:01      0.00000    
Rainfall         10/13/2007 01:02      0.00000    
Rainfall         10/13/2007 01:03      0.00000    
Rainfall         10/13/2007 01:04      0.00000    
Rainfall         10/13/2007 01:05      0.00000    
Rainfall         10/13/2007 01:06      0.00000    
Rainfall         10/13/2007 01:07      0.00000    
Rainfall         10/13/2007 01:08      0.00000    
Rainfall         10/13/2007 01:09      0.00000    
Rainfall         10/13/2007 01:10      0.00000    
Rainfall         10/13/2007 01:11      0.00000    
Rainfall         10/13/2007 01:12      0.00000    
Rainfall         10/13/2007 01:13      0.00000    
Rainfall         10/13/2007 01:14      0.00000    
Rainfall         10/13/2007 01:15      0.00000    
Rainfall         10/13/2007 01:16      0.00000    
Rainfall         10/13/2007 01:17      0.00000    
Rainfall         10/13/2007 01:18      0.00000    
Rainfall         10/13/2007 01:19      0.00000    
Rainfall         10/13/2007 01:20      0.00000    
Rainfall         10/13/2007 01:21      0.00000    
Rainfall         10/13/2007 01:22      0.00000    
Rainfall         10/13/2007 01:23      0.00000    
Rainfall         10/13/2007 01:24      0.00000    
Rainfall         10/13/2007 01:25      0.00000    
Rainfall         10/13/2007 01:26      0.00000    
Rainfall         10/13/2007 01:27      0.00000    
Rainfall         10/13/2007 01:28      0.00000    
Rainfall         10/13/2007 01:29      0.00000    
Rainfall         10/13/2007 01:30      0.00000    
Rainfall         10/13/2007 01:31      0.00000    
Rainfall         10/13/2007 01:32      0.00000    
Rainfall         10/13/2007 01:33      0.00000    
Rainfall         10/13/2007 01:34      0.00000    
Rainfall         10/13/2007 01:35      0.00000    
Rainfall         10/13/2007 01:36      0.00000    
Rainfall         10/13/2007 01:37      0.00000    
Rainfall         10/13/2007 01:38      0.00000    
Rainfall         10/13/2007 01:39      0.00000    
Rainfall         10/13/2007 01:40      0.00000    
Rainfall         10/13/2007 01:41      0.00000    
Rainfall         10/13/2007 01:42      0.00000    
Rainfall         10/13/2007 01:43      0.00000    
Rainfall         10/13/2007 01:44      0.00000    
Rainfall         10/13/2007 01:45      0.00000    
Rainfall         10/13/2007 01:46      0.00000    
Rainfall         10/13/2007 01:47      0.00000    
Rainfall         10/13/2007 01:48      0.00000    
Rainfall         10/13/2007 01:49      0.00000    
Rainfall         10/13/2007 01:50      0.00000    
Rainfall         10/13/2007 01:51      0.00000    
Rainfall         10/13/2007 01:52      0.00000    
Rainfall         10/13/2007 01:53      0.00000    
Rainfall         10/13/2007 01:54      0.00000    
Rainfall         10/13/2007 01:55      0.00000    
Rainfall         10/13/2007 01:56      0.00000    
Rainfall         10/13/2007 01:57      0.00000    
Rainfall         10/13/2007 01:58      0.00000    
Rainfall         10/13/2007 01:59      0.00000    
Rainfall         10/13/2007 02:00      0.00000    
Rainfall         10/13/2007 02:01      0.00000    
Rainfall         10/13/2007 02:02      0.00000    
Rainfall         10/13/2007 02:03      0.00000    
Rainfall         10/13/2007 02:04      0.00000    
Rainfall         10/13/2007 02:05      0.00000    
Rainfall         10/13/2007 02:06      0.00000    
Rainfall         10/13/2007 02:07      0.00000    
Rainfall         10/13/2007 02:08      0.00000    
Rainfall         10/13/2007 02:09      0.00000    
Rainfall         10/13/2007 02:10      0.00000    
Rainfall         10/13/2007 02:11      0.00000    
Rainfall         10/13/2007 02:12      0.00000    
Rainfall         10/13/2007 02:13      0.00000    
Rainfall         10/13/2007 02:14      0.00000    
Rainfall         10/13/2007 02:15      0.00000    
Rainfall         10/13/2007 02:16      0.00000    
Rainfall         10/13/2007 02:17      0.00000    
Rainfall         10/13/2007 02:18      0.00000    
Rainfall         10/13/2007 02:19      0.00000    
Rainfall         10/13/2007 02:20      0.00000    
Rainfall         10/13/2007 02:21      0.00000    
Rainfall         10/13/2007 02:22      0.00000    
Rainfall         10/13/2007 02:23      0.00000    
Rainfall         10/13/2007 02:24      0.00000    
Rainfall         10/13/2007 02:25      0.00000    
Rainfall         10/13/2007 02:26      0.00000    
Rainfall         10/13/2007 02:27      0.00000    
Rainfall         10/13/2007 02:28      0.00000    
Rainfall         10/13/2007 02:29      0.00000    
Rainfall         10/13/2007 02:30      0.00000    
Rainfall         10/13/2007 02:31      0.00000    
Rainfall         10/13/2007 02:32      0.00000    
Rainfall         10/13/2007 02:33      0.00000    
Rainfall         10/13/2007 02:34      0.00000    
Rainfall         10/13/2007 02:35      0.00000    
Rainfall         10/13/2007 02:36      0.00000    
Rainfall         10/13/2007 02:37      0.00000    
Rainfall         10/13/2007 02:38      0.00000    
Rainfall         10/13/2007 02:39      0.00000    
Rainfall         10/13/2007 02:40      0.00000    
Rainfall         10/13/2007 02:41      0.00000    
Rainfall         10/13/2007 02:42      0.00000    
Rainfall         10/13/2007 02:43      0.00000    
Rainfall         10/13/2007 02:44      0.00000    
Rainfall         10/13/2007 02:45      0.00000    
Rainfall         10/13/2007 02:46      0.00000    
Rainfall         10/13/2007 02:47      0.00000    
Rainfall         10/13/2007 02:48      0.00000    
Rainfall         10/13/2007 02:49      0.00000    
Rainfall         10/13/2007 02:50      0.00000    
Rainfall         10/13/2007 02:51      0.00000    